5

C                     0.46270900           0.55268600          -0.02893700         
O                    -1.30595600          -0.10235500           0.09188100         
O                     1.20311700          -0.32742200           0.02176200         
H                    -1.34719900          -0.83915800          -0.51944900         
H                    -0.60635000           0.96126400          -0.21607500         
