10

C                     1.49714700          -0.59867000          -0.00000200         
C                     0.23637300           1.05727900           0.00000700         
C                    -0.65441100           0.07509700           0.00000200         
O                    -1.42920800          -0.75580900          -0.00000000         
H                     1.36652900          -1.17614300          -0.90004500         
H                     2.41477200          -0.03463700          -0.00022000         
H                     1.36677300          -1.17586500           0.90025300         
H                    -1.29277100           2.19944400          -0.00005600         
H                     0.55187900           1.51570700          -0.91752300         
H                     0.55182500           1.51572600           0.91754800         
