10

C                    -1.06487500          -0.87990900           0.04785400         
C                     1.46521700          -0.24607700          -0.02107100         
C                     0.00400900           0.01902100          -0.02594200         
O                    -0.45683000           1.22542100           0.01565100         
H                    -1.56596700           0.49011200           0.27365500         
H                    -1.77224700          -0.82302100          -0.77248800         
H                    -0.92496600          -1.90285200           0.37584600         
H                     1.70583800          -1.12118200          -0.61963400         
H                     1.78810900          -0.43155500           1.00359900         
H                     1.99777200           0.62692300          -0.39123200         
