13

C                     0.82275600           0.71934400          -0.53066100         
C                    -1.65648100          -0.00745100           0.12926000         
C                     2.24061100           0.38944200          -0.17309400         
C                     2.62055000          -0.66182800           0.52624800         
O                    -0.09820600          -0.25666300          -0.07186000         
O                    -2.02191100          -1.08623000          -0.35431100         
O                    -2.03567000           0.99053400           0.60666700         
H                    -0.69935100          -1.21203600          -0.58307200         
H                     0.73182900           0.83738600          -1.61989900         
H                     0.52921600           1.66797100          -0.06155800         
H                     2.95499700           1.10837800          -0.54914600         
H                     1.90914100          -1.37516400           0.90655700         
H                     3.65584500          -0.84470600           0.75263600         
