13

C                     0.83864500          -0.37887400           0.38902900         
C                    -1.78383400          -0.04763100          -0.03318100         
C                     2.09265700          -0.18292700          -0.40313100         
C                     3.23804900           0.20905200           0.12065900         
O                    -0.24789300           0.31323600          -0.22238500         
O                    -2.17991300           1.12116300           0.05321600         
O                    -2.12646300          -1.16593200          -0.01439400         
H                    -0.85387800           1.37175600          -0.02243500         
H                     0.96573900          -0.03920900           1.42328400         
H                     0.55064000          -1.43848600           0.39322900         
H                     1.99344000          -0.37891100          -1.46125300         
H                     3.34175500           0.41097200           1.17424800         
H                     4.12334000           0.32842000          -0.47882400         
