13

C                     1.05311500           1.11324900           0.14096300         
C                    -1.38045500           0.06375800          -0.00345700         
C                     1.29652700          -0.15505600          -0.43644900         
C                     2.29506600          -0.51865800           0.46928500         
O                    -0.95986900           1.17734500          -0.22049500         
O                    -0.26128900          -1.03363100          -0.50215800         
O                    -2.31170000          -0.48821100           0.46613300         
H                    -0.31865000          -1.79112800           0.09647400         
H                     1.28823000           2.00885000          -0.41011200         
H                     0.87251900           1.22723500           1.19446100         
H                     1.48879200          -0.21710700          -1.49821700         
H                     2.13121100          -0.53811700           1.52989900         
H                     3.21524000          -0.95351500           0.11760300         
