13

C                    -0.97082300           1.25565900          -0.04606600         
C                     1.12858300          -0.07353500          -0.11433800         
C                    -1.68255000          -0.08255100          -0.22253900         
C                    -1.28341400          -1.10352100           0.66584400         
O                     0.41635200           1.10087900           0.17095100         
O                     0.47808500          -1.02293800          -0.67946300         
O                     2.26599800          -0.08499500           0.26063400         
H                    -0.95248400          -0.52033700          -1.06666400         
H                    -1.35182700           1.80837000           0.82210000         
H                    -1.12343200           1.87863700          -0.93828400         
H                    -2.69456300          -0.07188900          -0.60981800         
H                    -1.71170000          -2.09067300           0.59677600         
H                    -0.60024500          -0.92398400           1.48150200         
