13

C                    -0.74781700           1.13820300          -0.34916800         
C                     0.56303800          -1.32215700          -0.28326000         
C                     1.29558600          -0.11608900          -0.02613600         
C                    -1.62847100           0.14102500           0.56259700         
O                     0.60438300           1.06621500          -0.09307200         
O                     2.46692000          -0.07763400           0.26659700         
O                    -2.09560900          -0.86775300          -0.11282100         
H                    -0.99286100           0.88037100          -1.38473000         
H                    -1.04172400           2.16556300          -0.13193700         
H                    -2.41015500           0.76040600           1.03709000         
H                    -0.84519300          -0.21332700           1.29416600         
H                    -0.27466800          -1.39013000          -0.96109500         
H                     0.86503100          -2.21539800           0.23666900         
