13

C                    -0.20599300           1.24518500           0.46583900         
C                     2.16633300          -0.54713800           0.22431800         
C                     0.80442600          -0.13597900          -0.21930700         
C                    -1.27553100          -0.40604100           0.36681400         
O                     0.62174000           1.11104600          -0.66501600         
O                    -0.12433000          -1.06899500          -0.26730100         
O                    -2.31602900          -0.26188600          -0.21056300         
H                    -1.06485100           1.87749600           0.27708700         
H                     0.33585000           1.50011100           1.37423800         
H                    -1.15311100          -0.60670200           1.43713200         
H                     2.91611800           0.04418300          -0.29528100         
H                     2.30019400          -1.60753800           0.02652800         
H                     2.27934700          -0.38504100           1.29735300         
