13

C                    -0.61131100           1.21053400          -0.18143800         
C                     0.14906500          -1.15647200          -0.27336200         
C                     1.24765800          -0.12922700          -0.02008600         
C                    -1.21556100          -0.07562200           0.39960500         
O                     0.79170900           1.13120600          -0.03335600         
O                     2.39342100          -0.39656100           0.17704600         
O                    -2.41194400          -0.45980700          -0.00016200         
H                    -0.88704200           1.31395100          -1.23699200         
H                    -0.96579200           2.08294600           0.37043200         
H                    -1.01341300          -0.13839100           1.48782400         
H                    -1.22961100          -1.15253700          -0.23034000         
H                     0.37777600          -2.07316900           0.26656700         
H                     0.11348200          -1.32678900          -1.35403100         
