13

C                     0.90535700           0.11347700           0.16347200         
C                    -2.66958400          -0.68565500           0.06515900         
C                    -1.43340500           0.16458800          -0.02036100         
C                     2.06835900          -0.42456800          -0.39597200         
O                    -0.32725200          -0.57111100           0.13807900         
O                    -1.41301200           1.35783200          -0.18859300         
O                     3.07913600           0.09240800           0.18158100         
H                     2.05401600           0.62590100           0.96699800         
H                     0.73896900           1.17782400          -0.04446900         
H                     2.18993600          -1.19746800          -1.14400000         
H                    -2.43003400          -1.72211400          -0.15072300         
H                    -3.41842500          -0.30861800          -0.62539000         
H                    -3.06979900          -0.61559900           1.07525800         
