17

C                    -1.36812200           0.17957400           0.28078700         
C                     1.02733200           1.73121400           0.09085000         
C                    -2.71389500          -0.16789500          -0.26314300         
C                     0.88167000          -0.55886700          -0.12161400         
C                     1.77423900          -1.50847400           0.15489100         
O                    -0.44170900          -0.76900400           0.09896300         
O                     1.21537300           0.62230100          -0.72185200         
H                    -0.53825800           0.77841600           2.22719300         
H                    -1.02769900           1.21374500           0.23604300         
H                     0.12430300           1.22704300           1.99372000         
H                     1.78460800           1.85681000           0.85344200         
H                     0.74232700           2.60896100          -0.46711100         
H                     2.80668000          -1.36574100          -0.09355200         
H                     1.46935700          -2.43435100           0.60058200         
H                    -2.89752000          -1.23253500          -0.14250100         
H                    -2.77738700           0.06794600          -1.32955000         
H                    -3.48307000           0.40001600           0.25422000         
