17

C                     1.89344200          -0.08792500           0.68686000         
C                    -2.62116400          -0.72405100          -0.01622600         
C                     2.71402900          -0.50593200          -0.47465300         
C                    -0.53509700           0.35064700          -0.04992800         
C                     0.21780200           1.52039800          -0.04224600         
O                    -0.00083200          -0.78045200           0.06336400         
O                    -1.87225500           0.47408500          -0.10544000         
H                     2.13212000           0.86551000           1.12464900         
H                     1.67862200          -0.85485800           1.41306800         
H                    -2.18956000          -1.38655300           0.73826600         
H                    -3.63456500          -0.43528700           0.25564800         
H                    -2.62601000          -1.24370800          -0.97780700         
H                    -0.28022700           2.45853100           0.14779300         
H                     1.04929700           1.58151200          -0.71506000         
H                     3.73044400          -0.69639900          -0.11454900         
H                     2.77693100           0.26401800          -1.23941600         
H                     2.33357300          -1.42065100          -0.91882900         
