17

C                     1.72697200          -0.66193700          -0.40918100         
C                    -2.09013100          -0.84853800          -0.11142800         
C                     1.58165000          -0.07624400           0.97672900         
C                    -0.13047500           0.41827600          -0.01040200         
C                    -0.59688500           1.78881100          -0.05415300         
O                     0.61322600          -0.03338200          -1.07855800         
O                    -0.92322100          -0.51412100           0.62999300         
H                     1.60580700          -1.74903500          -0.43606400         
H                     2.63822400          -0.38165700          -0.94221700         
H                    -1.81930000          -1.24488900          -1.09337400         
H                    -2.59978500          -1.61027800           0.47284400         
H                    -2.73557000           0.02434300          -0.24015100         
H                    -1.47636500           2.06850100           0.48890800         
H                    -0.19685900           2.45003500          -0.79394400         
H                     0.42844500           1.21067900           0.76006100         
H                     1.36079900          -0.77104100           1.77096400         
H                     2.32777500           0.66115100           1.25211000         
