17

C                     1.57445600          -1.14547500          -0.09068200         
C                    -2.25429200          -0.76706600           0.31338500         
C                     2.17802700          -0.13996200           0.68041200         
C                    -0.41159700           0.54493700          -0.36171900         
C                     0.38754700           1.67961600          -0.13163600         
O                     0.05942400          -0.45899600          -0.95332200         
O                    -1.57263400           0.47159700           0.34807400         
H                     1.00384900          -1.92008000           0.39617200         
H                     2.01335300          -1.42994000          -1.03251800         
H                    -1.76849100          -1.49359700           0.97069200         
H                    -3.26457000          -0.56970000           0.66482600         
H                    -2.27619000          -1.16778000          -0.70266100         
H                    -0.03588200           2.45782000           0.48452600         
H                     0.98160200           2.02681400          -0.96354400         
H                     1.38591000           0.93511600           0.47961300         
H                     3.12286400           0.25088900           0.33008900         
H                     2.09839200          -0.22265300           1.75623400         
