17

C                     2.68918400           0.17749600           0.68704600         
C                    -2.72373200          -0.82854600           0.12122700         
C                     2.83012700          -0.62401400          -0.45111900         
C                    -0.68222900           0.39432700          -0.09271100         
C                    -1.30825700           1.58599700          -0.15096100         
O                     0.60641200           0.26083300          -0.14933200         
O                    -1.32306200          -0.81624900           0.05608600         
H                     2.84511900           1.23986800           0.64689000         
H                     2.41563100          -0.24469300           1.63681600         
H                    -3.01074100          -1.87752300           0.18431700         
H                    -3.08954300          -0.29874400           1.00723200         
H                    -3.16937900          -0.38225000          -0.77413000         
H                    -2.36350900           1.71173800          -0.00848200         
H                    -0.71522100           2.47156500          -0.27780500         
H                     1.63901800          -0.50841800          -0.76589700         
H                     3.38351500          -0.21285400          -1.28550900         
H                     2.96775500          -1.68692200          -0.29835500         
