8

C                    -0.74750500           0.12012600          -0.13718200         
C                     0.64744300           0.47320600           0.03149100         
C                     1.72942300          -0.36886100          -0.01953700         
O                    -1.85870300          -0.23996100          -0.00594100         
H                    -0.05312700           0.45604900           1.12876800         
H                     0.81181200           1.51082400          -0.24567000         
H                     2.70154000           0.03214700          -0.21180700         
H                     1.63322900          -1.42615100           0.12760100         
