21

C                     2.36894300           1.48482800           0.17331800         
C                     2.35439900          -0.00529900          -0.02763300         
O                     1.21610300          -0.64559200           0.24387000         
O                     0.14308200           0.14980900           0.64205700         
O                     3.28743500          -0.66650600          -0.40913100         
H                    -1.14068700          -0.88071500           0.32338000         
H                     2.11299700           1.70480600           1.20805800         
H                     1.60705800           1.94030300          -0.45695700         
H                     3.35248700           1.87250600          -0.07068200         
C                    -1.77990700          -1.90193300           0.24079400         
C                    -3.23756600           1.06784900           0.36427400         
C                    -2.32289200           0.70426500          -0.75784600         
C                    -1.35502200          -0.19152500          -0.73564000         
H                    -0.68980300          -0.45557500          -1.53449500         
H                    -2.42658800           1.27715400          -1.66975900         
H                    -2.83518100          -1.74854500           0.41897000         
H                    -1.29742800          -2.35337800           1.10991600         
H                    -1.60340200          -2.52231300          -0.62692500         
H                    -4.26220200           0.76697700           0.13991600         
H                    -3.23718800           2.14640300           0.50816600         
H                    -2.92075000           0.60158000           1.29243800         
