21

C                     0.56076100          -1.61514300           0.53333200         
C                     0.58353700           0.11625400           0.46929500         
O                     0.79497000           0.37396000          -0.90465200         
O                     2.12689400           0.04183400          -1.20560700         
O                     1.42467500           0.49287900           1.31080200         
H                     2.62192300           0.45206200          -0.46610200         
H                     1.61544100          -1.69037100           0.24501200         
H                     0.03984500          -2.29232200          -0.13527800         
H                     0.48818300          -1.92474000           1.56998800         
C                    -1.32881700           1.81217800          -0.19203900         
C                    -1.91971000          -1.05143800          -0.85294600         
C                    -1.37741700          -0.67286500           0.47344000         
C                    -0.92218000           0.67163000           0.71768000         
H                    -0.95105300           0.96882200           1.76465400         
H                    -1.66116200          -1.28359000           1.31869100         
H                    -1.17681100           1.56890300          -1.23779900         
H                    -0.73008600           2.68734200           0.04401800         
H                    -2.37813500           2.05252800          -0.02484100         
H                    -2.11122800          -2.11875400          -0.93248600         
H                    -1.24502200          -0.73675300          -1.64705800         
H                    -2.86126100          -0.51620800          -0.99572000         
