21

C                    -1.15325100           1.05070000          -0.69108100         
C                    -1.38804600          -0.27190700          -0.33888500         
O                    -2.54491600          -0.72669500           0.22685400         
O                    -3.62064700           0.18632200           0.12027800         
O                    -0.40404500          -1.06840000          -0.16661200         
H                    -4.38471600          -0.38768800           0.27229300         
H                     0.42080200          -0.34985400           0.38710000         
H                    -1.98690500           1.73383900          -0.64608500         
H                    -0.48055100           1.22307500          -1.51831300         
C                     1.07799400           0.78520900           0.98414600         
C                     3.08641500          -1.22835500          -0.03450400         
C                     3.08564500           0.22580100          -0.39030900         
C                     2.20620900           1.10743200           0.07189200         
H                     2.27462200           2.13840400          -0.25125400         
H                     3.86159100           0.55740100          -1.06494900         
H                     1.36183600           0.00001800           1.69296600         
H                    -0.09840100           1.10701000           0.27208800         
H                     0.84508100           1.64437400           1.62112200         
H                     3.87639500          -1.75359200          -0.56341300         
H                     2.13271600          -1.69006200          -0.28933700         
H                     3.24459900          -1.36601900           1.03607400         
