21

C                     1.05640800          -0.57264000           1.54591100         
C                     0.68456900           0.52257100           0.58467300         
O                     1.58916900           0.02800500          -0.96230500         
O                     2.38180900          -1.12682600          -0.90855700         
O                     0.87065700           1.69915500           0.75157400         
H                     3.28127000          -0.77921600          -0.96234500         
H                     1.99237000          -0.29039000           2.02398600         
H                     1.19157300          -1.52456500           1.04195300         
H                     0.28251900          -0.65427300           2.30573300         
C                    -2.98320700          -0.96050900           0.02522200         
C                    -1.44353900           1.42681200          -0.72481700         
C                    -0.75653100           0.17136400          -0.25388800         
C                    -1.50190700          -0.91716400           0.09559100         
H                    -1.00861400          -1.81644600           0.43661300         
H                     0.13207300          -0.13335600          -1.00424200         
H                    -3.40871800          -0.12400300           0.58135200         
H                    -3.37776400          -1.89235000           0.41885500         
H                    -3.31660000          -0.84663200          -1.00756400         
H                    -1.99507200           1.24156600          -1.64481500         
H                    -0.69916800           2.19980000          -0.89705300         
H                    -2.14169500           1.79458400           0.02568200         
