11

C                     0.78176500           0.35518500           0.44513100         
C                    -0.19290400           1.18229400          -0.19534000         
O                     1.60989100          -0.32294800          -0.28551700         
H                     1.95502200          -1.12072800           0.14322600         
H                     0.78622100           0.24717600           1.52512500         
H                    -0.01295500           1.31456000          -1.25541000         
H                    -0.48913500           2.08799500           0.31551100         
C                    -1.39322100          -0.02459500           0.00288000         
O                    -0.78962700          -1.17751400          -0.02754900         
H                    -1.76260700           0.29335200           0.99484900         
H                    -2.21249800           0.10403700          -0.73479700         
