11

C                     0.61632100          -0.06567100           0.50535200         
C                     1.53102000          -0.55294000          -0.39100000         
O                    -0.21612900           1.52247000          -0.01011300         
H                     0.34359700           1.91357500          -0.68251600         
H                     0.93504400           0.26811900           1.48469400         
H                     2.55285200          -0.23347500          -0.36013200         
H                     1.22109700          -1.17153400          -1.21376400         
C                    -1.32996900          -0.46327100          -0.45341100         
O                    -0.61731200          -0.69994400           0.58265000         
H                    -0.92592000          -0.08781300          -1.37784500         
H                    -2.36337100          -0.77779200          -0.39637400         
