11

C                    -0.64414700           0.05664100          -0.01372800         
C                    -1.83710200          -0.51239600          -0.11209200         
O                    -0.30033500           1.32985000           0.12700400         
H                     0.73582500           1.28670900           0.03810400         
H                     0.41400100          -0.26087500          -0.72416900         
H                    -2.74437900           0.06353600          -0.04465700         
H                    -1.93120200          -1.57586700          -0.22878400         
C                     0.84447500          -0.83523300           0.25260900         
O                     1.75828700           0.04464500          -0.25205300         
H                     0.85427100          -1.86086600          -0.15825500         
H                     0.82851100          -0.90266900           1.35742000         
