11

C                     0.53170300           0.04261000           0.14039900         
C                     0.76586800           1.36581800           0.04494600         
O                     1.47329300          -0.91385000          -0.14120700         
H                     2.29641100          -0.50089200          -0.43166200         
H                    -0.03597200          -0.31425200           1.26714400         
H                     1.72744400           1.77324200          -0.22222700         
H                    -0.03756200           2.05483000           0.22742100         
C                    -1.03126700          -0.55669400           0.01746100         
O                    -1.92252800           0.21995400          -0.24427900         
H                    -1.09385200          -1.01520600           1.39982900         
H                    -0.86040600          -1.55695800          -0.37345800         
