12

C                    -0.01131400          -0.31912700           0.24266500         
C                     2.04489100           0.28354100           0.12506400         
C                     0.98872600           1.13176400          -0.24116400         
O                    -1.21444000          -0.36251900          -0.38796800         
O                     0.72409700          -1.32588500          -0.04694200         
O                    -2.19771500           0.43749300           0.25107700         
H                    -2.99897200           0.21023100          -0.24285800         
H                    -0.14151500           0.00043000           1.28824600         
H                     2.64828900          -0.21797700          -0.61240200         
H                     2.35287900           0.18783500           1.15387900         
H                     0.66822500           1.92337000           0.41754300         
H                     0.84174600           1.32633200          -1.29313400         
