12

C                    -0.22532900          -0.41775700           0.73573600         
C                     1.50668600           0.46249500          -0.50299400         
C                     0.48763000           0.83264700           0.75418300         
O                    -1.34156100          -0.67424000           0.12434600         
O                     1.75957000          -0.81950000          -0.40520600         
O                    -1.96878800           0.43347900          -0.51079000         
H                    -2.62116900           0.01017000          -1.08921600         
H                     0.15226900          -1.30969200           1.21500200         
H                     0.86588000           0.75313200          -1.35482300         
H                     2.41178700           1.10773100          -0.53117000         
H                     1.10195200           0.95203900           1.63878400         
H                    -0.11840500           1.70441200           0.53307200         
