12

C                     0.05547900           0.83611400          -0.32099900         
C                    -1.35211000          -0.66034200          -0.05102300         
C                    -1.07828600           0.61777200           0.73726400         
O                     1.27830400           1.02496900          -0.03200600         
O                    -0.19949500          -0.48818900          -0.85709900         
O                     1.23432300          -1.17441600           0.41707000         
H                     2.08720500          -0.74042500           0.33131200         
H                    -0.30580600           1.54699200          -1.09763000         
H                    -1.26356400          -1.59111900           0.51459000         
H                    -2.25964400          -0.67821200          -0.66205300         
H                    -1.86770700           1.36095800           0.78165800         
H                    -0.64604700           0.44163200           1.71695300         
