12

C                    -0.17586900          -0.56708200           0.56942100         
C                     1.60121700          -0.00580200          -0.58276700         
C                     1.10240900           1.11257000           0.28480900         
O                    -0.82162500           0.44772600           0.16651200         
O                     0.90748000          -1.10965600           0.01956800         
O                    -2.32806200          -0.06086600          -0.38825000         
H                    -2.87297200           0.70363800          -0.19265500         
H                    -0.68713900          -1.29052100           1.21122600         
H                     1.28957400           0.11197200          -1.62450300         
H                     2.67464400          -0.20953000          -0.52686200         
H                     1.52838700           1.16946900           1.27543100         
H                     0.83862000           2.05922900          -0.15404500         
