11

C                     1.48883900          -0.13015100           0.00008700         
C                     0.52430000           1.08827100          -0.00009600         
C                     0.34677200          -1.10352200          -0.00004300         
C                    -0.63513700          -0.20603900          -0.00005000         
O                    -1.90277800           0.03125300           0.00002800         
H                     0.32855700          -2.17423600          -0.00011700         
H                     2.12427500          -0.17142200          -0.88576500         
H                     2.12399300          -0.17142800           0.88614200         
H                    -0.92631600           0.98028000           0.00062600         
H                     0.61165600           1.69792800           0.89755300         
H                     0.61141100           1.69749700          -0.89804800         
