16

C                    -0.85994600           0.07132400           0.12560500         
C                    -0.38828800          -1.26143100           0.35890500         
C                    -2.03501200           0.55741400          -0.22233200         
C                     0.62178600          -1.82809400          -0.30232400         
H                    -0.17538200           1.08427800           0.74456300         
H                    -0.85904200          -1.78313400           1.18481500         
H                    -2.20892800           1.62204100          -0.26510200         
H                    -2.86405600          -0.07654100          -0.49444300         
H                     0.97659600          -2.81012700          -0.04099700         
H                     1.09898500          -1.34563400          -1.13552600         
C                     0.62410800           1.29062300          -0.08145300         
C                     1.85942600           0.78165900           0.06009100         
H                    -0.01882400           2.52372100           1.05866100         
H                     0.32515700           1.84802600          -0.94924500         
H                     2.18548500           0.26930700           0.94574000         
H                     2.60756300           0.99909400          -0.67942300         
