12

C                     1.00046000           0.22531600           0.42722400         
C                    -1.21863500           0.53557100          -0.46595300         
C                    -0.12506700           1.25859000           0.32824800         
O                     0.00898600          -1.18607500           0.30671100         
O                    -1.30163600          -0.77317800           0.07198400         
O                     1.70242800          -0.07305600          -0.59677400         
H                     0.73071100          -1.13129600          -0.65569300         
H                     1.45745800           0.14469100           1.42362200         
H                    -0.94506600           0.49147600          -1.52892200         
H                    -2.21152000           0.96698100          -0.34838200         
H                     0.23014800           2.13761800          -0.20316600         
H                    -0.48051400           1.53214700           1.32005600         
