12

C                    -0.61005100          -0.07143000           0.05925600         
C                     1.34401000          -0.84685900           0.47357400         
C                     0.30114800          -1.07118500          -0.61432400         
O                    -0.21883400           1.22056800          -0.05414600         
O                     1.13717800           1.16924600          -0.11366200         
O                    -1.93235300          -0.30239900           0.11228400         
H                    -2.38598000           0.44549700           0.52513600         
H                     0.12757000          -0.24336700           1.15954200         
H                     2.34613500          -0.53571800           0.22529800         
H                     1.32499600          -1.59792400           1.26038400         
H                     0.61773700          -0.76198600          -1.60586900         
H                    -0.12902400          -2.06897500          -0.63133000         
