12

C                    -1.14690800          -0.98145600          -0.00155600         
C                     1.28279000          -0.15521500           0.37047500         
C                     0.18020800          -0.20572200          -0.42221400         
O                    -2.11153000          -0.03800500           0.10622800         
O                    -0.84084300           1.19473400           0.03927600         
O                     2.51904400           0.02092800          -0.17378600         
H                    -0.82796300           2.17315900          -0.07327200         
H                     3.19651700           0.00225600           0.51017400         
H                    -0.95619400          -1.50120800           0.94910500         
H                    -1.36922100          -1.70554800          -0.79619700         
H                     1.21208200          -0.26391500           1.44322700         
H                     0.31487100          -0.07163700          -1.48701100         
