12

C                    -0.50349000          -0.20971000           0.14082000         
C                     1.67153400          -0.22017200          -0.33600500         
C                     0.62298900           0.63112000           0.06789400         
O                    -1.67471000           0.26566700          -0.40527200         
O                    -2.82483300          -0.20809000           0.29986100         
O                     2.94854500          -0.13200300           0.16689200         
H                    -3.54350800          -0.00015900          -0.31135500         
H                     2.94339400           0.38919100           0.97854500         
H                     0.54771200          -1.25218900          -0.25020900         
H                    -0.69484000          -0.87046800           0.97773000         
H                     1.74764200          -0.57155700          -1.35601000         
H                     0.66138400           1.69316500           0.23319200         
