12

C                    -0.67581400           0.55211600          -0.24108300         
C                     1.75932400           0.12856500          -0.36252600         
C                     0.59880200           0.01497000           0.28067300         
O                    -1.70540700           0.66852400           0.53627800         
O                    -2.51673100          -0.74166000          -0.22041000         
O                     2.95112300          -0.32475200           0.07288400         
H                    -3.35191300          -1.23754300          -0.14203800         
H                     2.84991700          -0.75351500           0.93326000         
H                    -1.23969700          -0.43603800          -0.83827400         
H                    -0.57415200           1.29804500          -1.04407400         
H                     1.85047400           0.62000300          -1.32100000         
H                     0.53963000          -0.48175100           1.23972500         
