12

C                    -1.38326500           0.72563900           0.16202400         
C                     0.88376600           0.18886700           0.24097800         
C                     0.01823200           1.17795600          -0.04503300         
O                    -1.43801100          -0.59459100          -0.40169400         
O                    -0.27892200          -1.22457000          -0.02559600         
O                     2.13472600          -0.05132600          -0.11873000         
H                     0.04157400          -1.19929300           1.41201900         
H                     2.22622600          -0.08634200          -1.08118700         
H                    -2.13331100           1.31536200          -0.35978000         
H                    -1.63317300           0.64039300           1.23366900         
H                     0.76863900          -0.38257100           1.49429000         
H                     0.27530300           2.12157500          -0.47866200         
