12

C                    -1.22354900          -0.42219800           0.28064500         
C                     0.58354600           1.08454900           0.23486700         
C                     2.00702200          -0.21012300          -0.64200200         
O                    -0.73408700           0.82585200          -0.14019900         
O                    -2.48900400          -0.61131100          -0.22872600         
O                     2.42888100          -0.79806800           0.28387600         
H                    -3.01076900           0.18263000          -0.05783800         
H                    -1.21236400          -0.46172700           1.39029800         
H                    -0.59807800          -1.24157000          -0.10538100         
H                     0.78476900           2.13605200           0.04631200         
H                     0.80027600           0.79873200           1.26471100         
H                     1.38772200           0.54072700          -1.09877300         
