12

C                     1.23874000          -0.74157500           0.21139200         
C                     0.14554500           1.23555300           0.11633200         
C                    -0.93022200           0.25933700          -0.41590600         
O                     1.39805600           0.60838600          -0.08352700         
O                    -0.02722900          -1.12826700          -0.29099400         
O                    -1.88432700          -0.11153400           0.35289400         
H                    -0.92459800          -1.20920100           0.44642700         
H                     1.28451800          -0.93072900           1.29740200         
H                     2.03315300          -1.29384400          -0.30233900         
H                    -0.04343200           1.41319500           1.18399600         
H                     0.15619100           2.17615600          -0.42989800         
H                    -1.12221100           0.37585600          -1.49347900         
