12

C                     1.52638100           0.16026200          -0.52225600         
C                    -0.58682200           0.44412400           0.50333800         
C                    -1.56074500           0.18220800          -0.46587300         
O                     0.69506400           0.96784700           0.26274000         
O                     1.95677700          -0.98382000           0.14138400         
O                    -2.40155800          -0.65835500           0.00033000         
H                     2.40665700          -0.72676000           0.95559200         
H                     2.36853200           0.81003200          -0.80330000         
H                     1.01514500          -0.19527900          -1.42546800         
H                    -1.45133800          -0.67176100           1.03622700         
H                    -0.97430800           0.92989100           1.39891600         
H                    -1.63983300           0.52894200          -1.48885500         
