12

C                    -1.07998500           0.17130100           0.46851900         
C                     1.43354100           0.86134000          -0.01522300         
C                     1.42854100          -0.47276800          -0.42109200         
O                    -0.33222000           1.11249400           0.01859200         
O                    -2.02187900          -0.38307100          -0.37492000         
O                     0.85474800          -1.30976800           0.37023600         
H                    -1.85732100          -0.07913900          -1.27741200         
H                    -1.47292100           0.23674200           1.48640200         
H                    -0.21632400          -0.85802200           0.62971500         
H                     1.76010900           1.63106300          -0.69621900         
H                     1.58346100           1.07949000           1.03301400         
H                     1.50523100          -0.72661000          -1.47998600         
