9

C                    -1.39178900           0.03510000          -0.24598800         
C                    -0.34730300           1.03181400           0.20013600         
O                    -0.51797600          -1.03575700           0.15959800         
C                     0.71793000           0.15446600          -0.01792100         
O                     1.84522000          -0.12656400          -0.13366100         
H                    -0.26979400          -0.13675900           1.14554000         
H                    -2.35043300           0.00792100           0.27545900         
H                    -1.55211200          -0.00387300          -1.32472100         
H                    -0.31864200           2.10300100           0.07886400         
