9

C                    -1.02040500           0.29391300           0.39246100         
C                     0.13413400           0.92605600          -0.20540000         
O                    -1.81588700          -0.51699900          -0.32337500         
C                     1.01566000          -0.08885000          -0.04285100         
O                     2.16474700          -0.43441700           0.03549700         
H                    -2.47079200          -0.98213500           0.21611700         
H                     0.17252100          -0.87342800           0.51200600         
H                    -1.50595800           0.74749900           1.26549700         
H                     0.23701400           1.93268700          -0.55585100         
