17

C                    -0.71524800           1.12827500           0.28996800         
C                     0.57787500           1.34713800          -0.44386000         
C                     1.83130300           0.74544100           0.10465600         
C                     2.45978900          -1.13874800           0.13989300         
C                    -1.30146600          -0.24038100           0.01868600         
O                    -2.63217700          -0.28342300           0.11260200         
O                    -0.64001200          -1.20715000          -0.28036100         
H                    -2.96494800          -1.17400200          -0.08357700         
H                    -1.45545700           1.87777700           0.00874000         
H                    -0.55732500           1.20428500           1.37095700         
H                     1.16231400          -0.09170700          -0.29673200         
H                     0.47729200           1.36447800          -1.52326600         
H                     2.70027700           1.07965900          -0.44446300         
H                     1.91872500           0.88938400           1.17405700         
H                     3.38879200          -1.01613400           0.67401400         
H                     2.62402600          -1.48591200          -0.86961300         
H                     1.77030300          -1.77358800           0.67589000         
