17

C                     0.67890700           1.23287400          -0.41472500         
C                    -0.38538300           0.45175200           0.36544000         
C                    -1.79492900           0.48271100          -0.23071800         
C                    -2.67371400          -0.62093800           0.35103300         
C                     1.28961400          -0.06850500          -0.14651800         
O                     2.26401600          -0.09747700           0.75984300         
O                     1.03095500          -1.19774100          -0.80087400         
H                     2.53180500          -1.01617000           0.91624600         
H                     1.16233600           2.07156600           0.07078800         
H                     0.41146200           1.43622100          -1.44407500         
H                    -0.07426700          -0.78445100          -0.34803900         
H                    -0.38420500           0.64847200           1.43254600         
H                    -2.25727500           1.45558800          -0.02261400         
H                    -1.74967900           0.37148800          -1.31671100         
H                    -2.28454700          -1.60351500           0.09199000         
H                    -3.68745000          -0.54083100          -0.03428500         
H                    -2.71492000          -0.54398900           1.43532600         
