10

C                    -0.63011100          -1.09636900          -0.05053000         
O                    -1.47593400           0.70676600          -0.05159200         
H                    -2.32885500           1.12844900          -0.26162800         
H                    -1.63755000          -1.36780000           0.23628000         
H                     0.06820700          -1.63311300           0.59033300         
H                    -0.44378600          -1.20911200          -1.10507900         
C                     0.84153600           0.20735200           0.41831400         
O                     1.75454400           0.22348800          -0.36823700         
H                    -0.17342200           0.84942000           0.18394700         
H                     1.01797800           0.12422600           1.50807700         
