10

C                    -1.40550600          -0.25000100           0.09076200         
O                    -0.03569900           1.06611200          -0.03696600         
H                    -0.08028600           1.28335600          -0.98043300         
H                    -1.55423600          -0.87398700          -0.77216300         
H                    -2.05052200           0.62375400           0.13313400         
H                    -1.33197800          -0.77979600           1.02279300         
C                     1.05612800           0.08081700           0.17526100         
O                     0.52343100          -1.04718800          -0.19187400         
H                     1.28978800           0.18802300           1.25526500         
H                     1.92164400           0.42236100          -0.42402000         
