10

C                     1.94313800          -0.02598200          -0.00000200         
O                     0.57365200          -0.16750000           0.00000300         
H                    -0.56137800          -1.04085800          -0.00000000         
H                     2.39591000          -0.45572400           0.90255500         
H                     2.14883600           1.04897800           0.00003100         
H                     2.39590300          -0.45567200          -0.90258700         
C                    -1.66203300          -0.37197000          -0.00000100         
O                    -1.04185800           0.75015600          -0.00000000         
H                    -2.16012900          -0.68512500           0.92712900         
H                    -2.16012600          -0.68512500          -0.92713200         
