10

C                     1.73346700          -0.45444900          -0.09475300         
O                     0.25134800           0.96517900           0.00522600         
H                    -0.11141800           1.33355200          -0.81446300         
H                     1.48366600          -1.15528300          -0.87124100         
H                     2.05632500          -0.85286400           0.85070900         
H                     2.29390400           0.40741800          -0.41704900         
C                    -0.73807100          -0.11920300           0.46940100         
O                    -1.59121400          -0.41137900          -0.39202100         
H                     0.09611000          -0.91615600           0.61833400         
H                    -1.07203400           0.19483700           1.48018900         
