17

C                    -1.63346200          -0.23068900           0.62184000         
C                     1.01515700           1.78410400          -0.19989000         
C                    -2.52223000           0.36106700          -0.47531200         
C                     0.74250600          -0.78437500          -0.01202100         
C                    -0.54130400          -1.08701500           0.05945700         
O                     1.30814500           0.59409400           0.51703700         
O                     1.83021400          -1.30893800          -0.38259800         
H                     2.21440200          -0.01163700           0.15316700         
H                    -0.81867300          -2.05302400          -0.33226900         
H                    -2.25579200          -0.84307300           1.27978400         
H                    -1.20733400           0.56980000           1.22953700         
H                     1.02351400           1.60792500          -1.27869700         
H                     1.77194200           2.52537300           0.05785600         
H                     0.03458600           2.15022400           0.10091900         
H                    -1.94059800           0.98211000          -1.15379300         
H                    -2.97972100          -0.43604300          -1.05632700         
H                    -3.31320400           0.96855400          -0.04013400         
