17

C                    -1.60639300           0.05261500           0.45152500         
C                     1.91839800          -1.43005300           0.18383100         
C                    -2.87312800          -0.55612800          -0.09653700         
C                     0.54425500           0.51700600           0.02072600         
C                    -0.77483000           0.88148300          -0.33908300         
O                     1.11083200          -0.59179400          -0.61445700         
O                     1.47208500           1.52367900           0.24199100         
H                     2.30630400           1.31726100          -0.19924800         
H                    -1.07418800           1.64418400          -1.03591500         
H                    -0.23544300          -0.39571600           0.93208800         
H                    -1.70169300           0.28049000           1.50786500         
H                     2.40177700          -2.12827600          -0.49675100         
H                     1.30239300          -1.98405300           0.90393000         
H                     2.68066600          -0.86617300           0.73291600         
H                    -3.16035700          -1.43087300           0.48311400         
H                    -3.68760200           0.16685700          -0.03598400         
H                    -2.74499900          -0.84831700          -1.13505600         
