17

C                     1.64566100           0.04475600          -0.67067400         
C                    -1.51150700          -1.29864700          -0.46812600         
C                     2.51063900          -0.31240200           0.54101600         
C                    -0.72378700           0.71729300          -0.17636600         
C                     0.56964400           0.99731700          -0.27216600         
O                    -0.85767600          -1.12186300           0.55465900         
O                    -1.75501000           1.43143000           0.24812400         
H                    -1.55761100           1.98290500           1.02194200         
H                     0.91487000           2.00882400          -0.04141100         
H                     1.21359500          -0.86685400          -1.07879600         
H                     2.27108000           0.51176900          -1.43608100         
H                    -1.39047700          -2.98070900           0.76846100         
H                    -1.06840500          -1.71835600          -1.37891300         
H                    -2.58709300          -1.09385700          -0.51332100         
H                     2.94534900           0.58151300           0.98323400         
H                     1.90033500          -0.81314800           1.28760400         
H                     3.31593600          -0.97851300           0.24291800         
