17

C                    -1.60202200          -0.63605100           0.21750200         
C                     0.92545000           2.03408900          -0.06080500         
C                    -2.65514100           0.33551600          -0.31892800         
C                     0.93220300          -0.49385600           0.07222400         
C                    -0.28993800           0.05738000           0.44346500         
O                     1.93692200           0.24518500          -0.11007100         
O                     1.04397500          -1.81248700          -0.14325900         
H                     1.94054200          -2.00694400          -0.45322300         
H                    -0.26216100           0.71893300           1.29237700         
H                    -1.45648500          -1.44733000          -0.49729100         
H                    -1.97372800          -1.07023500           1.15295300         
H                    -0.07775500           2.26475000          -0.36285800         
H                     1.66724700           2.25504800          -0.80790200         
H                     1.20289500           2.31211600           0.93755400         
H                    -2.81193600           1.15201800           0.38307300         
H                    -2.33620400           0.75402400          -1.27092900         
H                    -3.60290800          -0.17643800          -0.46786800         
