13

C                     1.02179900          -0.04036700           0.02499500         
C                     0.97258700           1.35347100          -0.34932600         
C                     2.36671400          -0.74918600           0.19597800         
C                    -1.46426300          -0.05281700           0.05204800         
O                     0.01342900          -0.79730100          -0.35295600         
O                    -1.21501300           1.08533500           0.35327700         
O                    -2.32224900          -0.84609800          -0.03620000         
H                     0.79686400           0.39779800           1.07598000         
H                     1.68144500           2.03966900           0.08742400         
H                     0.28705700           1.74903000          -1.07856700         
H                     2.69812900          -1.07021900          -0.78823200         
H                     3.10875500          -0.08734900           0.63177800         
H                     2.23738200          -1.63101600           0.81648000         
