6

C                    -0.61258300           0.13475700          -0.00004100         
O                     0.29925500           0.88105300          -0.01176900         
O                     1.46712500          -0.53990600          -0.09602400         
O                    -1.44635100          -0.63487200           0.01771600         
H                     2.00414300          -0.43314300           0.69159800         
H                    -0.88888300           1.97440000           0.02926500         
