11

C                     0.49606500          -1.22327000           0.29117600         
C                     0.55351900           1.13668200           0.38974400         
C                     0.83058400           0.14827300          -0.71149900         
C                    -0.47079900           0.06694400           0.08179400         
O                    -1.68036000           0.01916400          -0.10345000         
H                     0.00661700          -2.09919000          -0.11110200         
H                     0.86986300          -1.28963000           1.30615400         
H                     1.18525900           1.11435400           1.27176800         
H                     0.28671800           2.13677700           0.07669600         
H                     1.47895000          -0.97369900          -0.29490800         
H                     1.15925900           0.18630400          -1.72829700         
