12

C                    -0.83261100           0.82347500          -0.57781500         
C                    -1.24489800           0.28946900           0.71578900         
C                     1.62235800          -0.14964800           0.08742800         
O                     1.28931000           1.04886400           0.06877100         
O                    -1.59808100          -0.75878900          -0.17565800         
O                     0.92117600          -1.16459800          -0.11113800         
H                    -0.62879500          -1.21034100          -0.26442100         
H                     2.69797400          -0.34371300           0.31173500         
H                    -0.12978000           0.38955800          -1.25581900         
H                    -1.46571400           1.59509100          -1.00845600         
H                    -0.51916400           0.01164800           1.47314300         
H                    -2.12286400           0.77417000           1.13560900         
