12

C                    -1.07906600           0.81104300          -0.43593100         
C                    -1.41807100          -0.57789800           0.12209000         
C                     1.33992500          -0.04304700           0.51056300         
O                    -0.08541500           1.40269000           0.30207800         
O                    -0.25438100          -1.39608900           0.10517500         
O                     1.97293500          -0.08638700          -0.45197100         
H                    -0.03795600          -1.61423500          -0.81178200         
H                     0.60393300           0.51244500           1.15476300         
H                    -0.77654300           0.70527900          -1.49515100         
H                    -1.97685900           1.44416000          -0.40031200         
H                    -1.70653000          -0.49935600           1.17258000         
H                    -2.22788400          -1.05059700          -0.44268600         
