12

C                    -0.32105500           0.78567200          -0.50758000         
C                    -1.68098200           0.14574400          -0.21971500         
C                     1.63985300          -0.10373000           0.43915800         
O                     0.53792200           0.61710400           0.61442800         
O                    -1.70580400          -1.11128900           0.16020800         
O                     2.03821200          -0.56163900          -0.58645800         
H                    -2.04012300          -0.02871400           0.95099300         
H                     2.14884100          -0.19386800           1.41180500         
H                     0.11531400           0.26369900          -1.37000800         
H                    -0.41509600           1.85424300          -0.71569300         
H                    -2.17662900           1.13128400           0.92682200         
H                    -2.42184800           0.45383500          -0.98052400         
