12

C                    -0.30215200           0.07299100          -0.41590400         
C                    -1.51639300           0.77336300          -0.46243000         
C                     1.89209800           0.09991200           0.40190000         
O                     0.64040500           0.47316400           0.56212900         
O                    -2.34831900          -0.68164800           0.32818700         
O                     2.34337800          -0.55960000          -0.49200300         
H                    -3.20558500          -1.02701200           0.65645000         
H                     2.48740000           0.49606500           1.24225200         
H                    -1.14556400          -0.98532000           0.17691200         
H                     0.15384600          -0.34612500          -1.30319800         
H                    -1.72250100           1.53570400           0.27061600         
H                    -2.09261900           0.79376500          -1.37092600         
