12

C                    -0.94787200          -1.15415900           0.07159600         
C                    -1.70061900          -0.09162400          -0.43837700         
C                     1.96028700           0.47754400          -0.13461700         
O                     0.70441500           0.16743100          -0.17370700         
O                    -2.52875200           0.67943100           0.34873200         
O                     2.85999700          -0.18387500           0.30208500         
H                    -2.26514200           0.60701600           1.27437000         
H                     2.14731200           1.49185200          -0.57771100         
H                    -0.82725000          -1.30724800           1.13090000         
H                    -0.51447000          -1.88545800          -0.58389000         
H                    -0.58132700           0.55911800          -0.61212600         
H                    -2.11517300          -0.15975500          -1.44003600         
