12

C                     1.00145900           0.82037700           0.43634400         
C                     1.32826400          -0.64003200           0.02891600         
C                    -0.96898800           0.17527400          -0.42508100         
O                    -0.03728600           1.15212800          -0.46351300         
O                     0.09490600          -1.19957500          -0.33059900         
O                    -1.58379200          -0.15870700           0.64504900         
H                    -0.68231800          -1.17204300           0.58984100         
H                    -1.50914900           0.16029300          -1.38171400         
H                     0.64405000           0.86713600           1.47097300         
H                     1.82254500           1.51538900           0.27828800         
H                     1.98187200          -0.65518500          -0.84923000         
H                     1.78796300          -1.20008300           0.84327800         
