12

C                    -1.36177200          -0.31860300           0.00513600         
C                    -0.83067200           1.06040700          -0.26359500         
C                     0.87187200          -0.47141000           0.00749400         
O                    -0.27862300          -1.11265700           0.51110800         
O                     0.87240400           0.80419200           0.74842900         
O                     0.79007900          -0.11405100          -1.20650400         
H                     0.72634300           0.68530300           1.70365500         
H                     1.74121400          -1.06322500           0.33366900         
H                    -2.13753400          -0.33136200           0.77496700         
H                    -1.71804600          -0.77272900          -0.92474000         
H                    -1.01035100           1.83485100           0.47366000         
H                    -0.74907000           1.40493100          -1.27968600         
