17

C                     0.10381700           0.06848300           0.01632400         
C                     1.26447200           0.56680600          -0.59980400         
C                     0.48128800          -1.07210200           0.90318400         
C                     1.24270700          -1.55295300          -0.30318100         
C                    -2.21700800          -0.33514300           0.03025400         
O                    -1.05102600           0.13507100          -0.62642100         
O                     0.45770900           2.03454100           0.51309600         
H                    -0.08768100           2.61661100          -0.01951400         
H                     2.17608700           0.63417800          -0.04534500         
H                     1.22063700           1.02897700          -1.57066400         
H                    -0.34901100          -1.68302800           1.24440000         
H                     1.11799900          -0.78904700           1.73300800         
H                     2.29349600          -1.75187400          -0.22053800         
H                     0.70711700          -2.12841400          -1.03702400         
H                    -2.26583200           0.03386400           1.05666900         
H                    -2.26140500          -1.42823700           0.02453500         
H                    -3.05652600           0.05953300          -0.53958900         
