12

C                     0.75284900           0.01195400           0.47865300         
C                     1.99076900          -0.39153400          -0.30489400         
C                    -0.61920100          -0.62193400          -0.31068800         
O                     0.32114800           1.23954700           0.37574600         
O                    -1.24223100           1.01713200          -0.44798900         
O                    -1.35964700          -1.33203000           0.30158500         
H                    -1.81623200           1.19482400           0.30785700         
H                     0.71716500          -0.40995800           1.49284200         
H                    -0.29796400          -0.72162100          -1.34777800         
H                     1.99474100           0.09302700          -1.27795400         
H                     2.02471900          -1.47080200          -0.42922200         
H                     2.87690800          -0.07357600           0.24109500         
