12

C                    -0.18220100           0.45689200          -0.04629700         
C                    -0.07694300           1.95627700          -0.21759700         
C                    -1.41419900          -0.20222300           0.24455000         
O                     0.90269100          -0.11534600           0.62830200         
O                     1.77671200          -0.83662900          -0.30277400         
O                    -1.41526500          -1.37478200          -0.23394100         
H                     2.58856100          -0.96454200           0.20336700         
H                    -0.23232200          -0.85947500          -0.77555900         
H                    -2.29088800           0.18768200           0.75403400         
H                     0.75873700           2.19033800          -0.87355700         
H                    -0.99063200           2.34036900          -0.66237100         
H                     0.09349100           2.45400900           0.73745200         
