12

C                    -0.02136600           0.20439600          -0.15072200         
C                     0.37902500           1.64552000           0.13275400         
C                     1.09078100          -0.80465300          -0.17253900         
O                    -1.07061800          -0.05399900          -0.87182000         
O                    -2.02387100          -0.51471100           0.53253100         
O                     2.18295600          -0.61982800           0.28998000         
H                    -2.93693100          -0.80444400           0.71903900         
H                    -0.71660600          -0.19834500           0.91873700         
H                     0.80582100          -1.74660400          -0.67402100         
H                     0.84679600           2.06983900          -0.75408300         
H                     1.09703500           1.67453300           0.94715200         
H                    -0.49448200           2.24174800           0.38069200         
