17

C                    -0.33046700           0.16264200           0.36785300         
C                    -1.49403300          -0.14141800          -0.55752300         
C                     1.96399100          -1.44664800           0.26921500         
C                    -2.78453300          -0.36813800           0.21601300         
C                     0.57302500           1.14010100           0.11892100         
O                     1.06434800          -0.80712800          -0.55086500         
O                     1.32381500           1.96532100          -0.10485000         
H                    -0.95418100           1.59468300           1.16721500         
H                    -0.25299800          -0.39955500           1.28568900         
H                    -1.61525100           0.67549300          -1.26832100         
H                    -1.21952900          -1.03912800          -1.11241100         
H                     2.49604800          -0.74819400           0.93561000         
H                     1.47667100          -2.21266500           0.89354500         
H                     2.71548900          -1.94547900          -0.35387600         
H                    -3.59162300          -0.58741700          -0.47813000         
H                    -2.68308400          -1.20360000           0.90421300         
H                    -3.04474500           0.52108700           0.78531500         
