17

C                     1.19469400           0.52083500          -0.93945100         
C                     1.95242000          -0.57688600          -0.18581400         
C                    -2.36045600          -0.45305900          -0.10352200         
C                     1.03001100          -0.59740200           1.04227600         
C                     0.05442900           0.62037500           0.04108700         
O                    -1.03277200          -0.69224600          -0.45924400         
O                    -0.55110600           1.51207700           0.54711500         
H                     1.71812400           1.47539100          -0.98447900         
H                     0.85887000           0.25042000          -1.93827300         
H                     1.93224000          -1.52507100          -0.72038600         
H                     2.99036900          -0.32793500           0.03412600         
H                    -2.73280600          -1.23911000           0.55857700         
H                    -2.42861600           0.51620500           0.41016000         
H                    -2.97095700          -0.41631600          -1.00792400         
H                    -0.20253500          -0.90129600           0.46817900         
H                     1.34901100           0.10015000           1.81499900         
H                     0.93073000          -1.57425900           1.53460100         
