17

C                     0.07133900          -1.00921000           0.70890600         
C                    -1.25406800          -0.38340400           0.49405000         
C                    -0.54007000           2.12896900           0.11389900         
C                    -2.05776300          -0.93259600          -0.66491100         
C                     1.23948600          -0.21793000          -0.05011100         
O                     2.23696100          -0.86607600          -0.27148700         
O                     1.02520300           0.98611400          -0.33237200         
H                     0.37693900          -1.00908100           1.75531400         
H                     0.15225700          -2.01738700           0.30797400         
H                    -1.85353800          -0.26993900           1.39801100         
H                    -0.94761200           0.71324700           0.21738900         
H                    -0.28411400           2.55210900          -0.84436700         
H                    -1.59722600           2.28842600           0.33810000         
H                     0.08340200           2.50029800           0.91125300         
H                    -2.41463300          -1.93437900          -0.42938200         
H                    -2.92278700          -0.30615600          -0.87388600         
H                    -1.44353900          -0.99241500          -1.56052900         
