17

C                    -0.71310300          -0.34437900          -0.28105400         
C                    -1.93582700           0.42265100          -0.06270900         
C                     2.90844100          -0.26865600           0.07804800         
C                    -3.16564500          -0.46079400           0.15925800         
C                     0.58874700           0.12049900           0.20822000         
O                     1.61378700          -0.80151100          -0.10156600         
O                     0.73579100           1.38128900          -0.11817100         
H                     0.44583800           0.02678600           1.35109200         
H                    -0.74986800          -1.17861300          -0.97356400         
H                    -1.79373300           1.14471300           0.74407100         
H                    -2.10156700           1.00638300          -0.97995200         
H                     2.96737600           0.72659700          -0.37161900         
H                     3.15801000          -0.19517400           1.14276700         
H                     3.59285400          -0.95507000          -0.41551600         
H                    -4.05521200           0.15746200           0.23904200         
H                    -3.29751200          -1.15513100          -0.66664900         
H                    -3.05849000          -1.03209800           1.07764900         
