8

C                     0.65948600           0.45150100          -0.00023300         
C                    -1.13355400          -0.61463700          -0.00015100         
O                     1.85338100          -0.29013500           0.00017400         
O                    -1.94155700           0.23352300           0.00020800         
H                     2.61759700           0.29657700           0.00047900         
H                     0.51937000           1.04355200           0.90394600         
H                     0.51972300           1.04311100          -0.90476200         
H                    -0.10686500          -0.95152900          -0.00042000         
