8

C                     0.58981100           0.63264300          -0.07207600         
C                    -0.87693600           0.49780100           0.16348200         
O                     1.38398700          -0.37657800           0.04976500         
O                    -1.09020400          -0.76282500          -0.18197700         
H                     0.87401900          -1.11458800           0.46356900         
H                    -1.16152900           0.76168200           1.21067900         
H                     1.01905500           1.43195300          -0.67494800         
H                    -1.35906200           1.25351700          -0.49004200         
