13

C                     0.41063200           1.32661800          -0.04915100         
C                     2.27694100          -0.49580800           0.32551500         
C                     0.86915100          -0.14791900          -0.01725200         
C                    -1.17969900          -0.15821200           0.19899800         
O                    -0.98504000           1.11747500          -0.09597100         
O                     0.16171300          -0.85063800          -0.81907000         
O                    -2.10657300          -0.86770600           0.29600600         
H                    -0.13316300          -0.32161000           1.17364000         
H                     0.74116800           1.82698600          -0.96249200         
H                     0.68419700           1.90989900           0.83375700         
H                     2.35108300          -1.55377300           0.56327000         
H                     2.88867700          -0.30665000          -0.55716800         
H                     2.64509300           0.10404400           1.15260500         
