13

C                    -0.08306900          -1.19380900           0.44363500         
C                    -1.25440800           1.09704000           0.79444500         
C                    -0.74230000          -0.01564100          -0.09898600         
C                     1.56375500           0.41840500          -0.30018100         
O                     0.47984500           0.72156700          -0.88104900         
O                    -1.55150500          -0.73633900          -0.79105100         
O                     1.69199900          -0.40560600           0.61040300         
H                     2.45013500           0.95837000          -0.66770600         
H                     0.26367500          -1.91598600          -0.27713900         
H                    -0.41117600          -1.59125200           1.39533000         
H                    -1.60254600           1.91773600           0.17387800         
H                    -2.09275400           0.71276200           1.36979100         
H                    -0.47391300           1.44542000           1.46594500         
