13

C                    -0.25464000          -1.25880600          -0.46399100         
C                     0.23855300           1.27866000          -0.87235200         
C                     0.78204400          -0.24360900           0.01474800         
C                    -1.03272600           0.53525400           0.42529800         
O                    -1.44347400          -0.50422900          -0.32860900         
O                     1.95725900          -0.28355100           0.17606200         
O                    -0.15572100           0.26502500           1.32800400         
H                    -1.81384300           1.26388900           0.62721100         
H                    -0.24149400          -2.11655000           0.21399100         
H                    -0.13034100          -1.57535200          -1.49879200         
H                     0.74805600           0.95928100          -1.78351500         
H                    -0.66769100           1.76929200          -1.23933900         
H                     0.84141200           2.01249700          -0.34543200         
