9

C                     0.10801900           1.09762400          -0.23218000         
C                    -1.08206500           0.02886200           0.41299000         
C                     0.99979300           0.09228400           0.10324100         
O                    -1.69831300          -0.69264300          -0.35738600         
O                     1.87712000          -0.65373300          -0.03425700         
H                    -1.56228500           0.64564200           1.18291700         
H                    -0.17508400          -0.51602100           1.11795700         
H                     0.08708200           1.36692800          -1.28566100         
H                     0.06534200           1.96183100           0.41362300         
