9

C                    -0.58514600           1.17179500          -0.23193000         
C                     1.42609000           0.46493900           0.15606800         
C                    -1.13941100          -0.03396700           0.28783700         
O                     1.38939400          -0.67480300          -0.01547500         
O                    -0.92381200          -1.13149900          -0.19982200         
H                     1.02099300           1.45863700           0.26208800         
H                    -1.66221100           0.05842400           1.26091500         
H                    -0.87675800           2.10693600           0.22645600         
H                    -0.41587200           1.20981900          -1.29893500         
