13

C                    -0.79340900           0.16582300           0.54786700         
C                    -1.72115500           0.69834000          -0.53425400         
C                     0.61467400          -1.36724500          -0.03729700         
C                     0.64133700           0.63130700           0.29261800         
O                    -0.60312900          -1.24372300           0.51913100         
O                     0.90320800          -0.51496200          -0.95439900         
O                     1.23270600           1.64866500           0.20951700         
H                    -1.14459700           0.43463800           1.54892100         
H                     1.01499300          -2.37605000          -0.04645600         
H                     1.24419700          -0.43218200           1.06505000         
H                    -2.70824100           0.26008900          -0.41419100         
H                    -1.78824000           1.77887100          -0.44470800         
H                    -1.32908500           0.44544200          -1.51622100         
