13

C                     1.24231500           0.45798200          -0.76056700         
C                     1.40973500           1.44519600           0.21103400         
C                    -2.06149500           0.21156100           0.30196200         
C                     1.31097600          -0.96546300          -0.38377000         
O                    -0.82356100           0.50306400           0.08384400         
O                    -2.73096400          -0.61483300          -0.24791100         
O                     1.74063000          -1.35552000           0.66984700         
H                     1.00264100           0.69827300          -1.78508700         
H                    -2.49351600           0.85382600           1.11794200         
H                     0.92516600          -1.65726200          -1.14959300         
H                     0.18856200           1.34504600           0.53717800         
H                     1.91070700           1.13483500           1.12196500         
H                     1.56842100           2.46793600          -0.10058900         
