13

C                    -0.85704100          -0.59728900           0.60377500         
C                    -1.97086500          -0.27330800          -0.34123100         
C                     1.28793800          -0.93061500          -0.27757000         
C                     0.31085700           1.35964200           0.54871000         
O                     0.14586300          -1.44814200          -0.04148100         
O                     1.66131000           0.20243400          -0.00886400         
O                    -0.14096500           1.89675400          -0.39465700         
H                    -1.15406300          -1.11246000           1.51420900         
H                     1.97459000          -1.63841000          -0.76745500         
H                    -0.02920200           0.71799100           1.36457200         
H                    -2.18419900          -1.09764400          -1.02216300         
H                    -2.86969400          -0.02784100           0.21671400         
H                    -1.69241900           0.59941600          -0.94797300         
