12

C                    -0.84905000          -0.15776400           0.76243900         
C                     0.86909800          -1.03892400           0.04640300         
C                     1.69650600           0.05113200          -0.43690800         
O                    -0.87230500          -0.29579100          -0.50253800         
O                    -2.47313500           0.45893000          -0.17793400         
O                     2.13900200           0.93372300           0.26388500         
H                    -2.38274600           1.36310200          -0.49071700         
H                    -1.32521900          -0.89455500           1.40904400         
H                    -0.46656200           0.75343600           1.22509400         
H                     1.86549100           0.04913200          -1.52769300         
H                     0.67612700          -1.87393500          -0.60797200         
H                     0.98508700          -1.29873800           1.09334200         
