13

C                     0.11395200           1.11881400          -0.37878500         
C                     1.37224100          -0.80242700           0.24473500         
C                     1.49657800           0.56051500          -0.47237700         
C                    -0.84310000          -0.22816400          -0.04541400         
O                    -0.57314500           0.77301900           1.03537400         
O                     0.05014100          -1.25089700           0.04436200         
O                    -1.95682900          -0.35782500          -0.48093500         
H                    -0.18000500           1.77514100           0.61669100         
H                    -0.43648900           1.66627200          -1.12684800         
H                     1.56630100          -0.68173200           1.31787700         
H                     2.03778100          -1.56574500          -0.15865900         
H                     2.26961600           1.17092800          -0.00076200         
H                     1.74343400           0.42833300          -1.52765700         
