11

C                     1.86543100           0.12547200           0.03146900         
C                    -0.45933600          -0.11249300           0.00896700         
C                    -0.82913100           1.23973700          -0.06004000         
O                     0.71959400          -0.70265000          -0.02983100         
O                    -1.52024200          -0.85033200           0.01154600         
H                    -2.01638400           0.34652900          -0.24425100         
H                     2.01032400           0.65189400          -0.91516800         
H                     2.70864300          -0.53811900           0.21235300         
H                     1.78117700           0.85314600           0.84234100         
H                    -1.39203300           1.59553800           0.79410800         
H                    -0.14832800           1.99857700          -0.42547600         
