11

C                    -1.87888500           0.00554500          -0.01611900         
C                     0.45222000          -0.05339400           0.04207700         
C                     1.75228000          -0.56213500          -0.06706400         
O                    -0.66815100          -0.73669900           0.04310600         
O                     0.48711400           1.24486500          -0.00946300         
H                     1.72591200           0.92208600          -0.30266000         
H                    -2.16891300           0.32487200           0.98709000         
H                    -2.63384400          -0.66011000          -0.42913000         
H                    -1.74969500           0.88813100          -0.64636800         
H                     2.40893000          -0.29629800           0.75255000         
H                     1.91221800          -1.58411400          -0.38398900         
