13

C                    -0.34264000           1.03746000           0.00002800         
C                     0.88956400          -0.67386300          -0.00007300         
C                     2.24005500          -0.01744000           0.00005500         
C                    -1.26428900           0.08947800          -0.00024600         
O                    -2.05780000          -0.72615600           0.00012600         
H                    -1.81190800           2.27629500          -0.00000300         
H                    -0.00580200           1.48347800          -0.91585200         
H                    -0.00620400           1.48308400           0.91625500         
H                     0.68066100          -1.23785300           0.89952300         
H                     0.68076400          -1.23770800          -0.89978500         
H                     2.37957100           0.60108400           0.88444600         
H                     3.02947400          -0.77409900           0.00008300         
H                     2.37970500           0.60115800          -0.88426300         
