13

C                    -1.23082500          -0.64296800          -0.22927800         
C                    -1.13111900           0.63392100           0.39054800         
C                     0.82719700           1.28645900          -0.11622600         
C                     0.40797800          -0.46004800          -0.35466800         
O                     1.09570800          -1.16068300           0.38068600         
H                     0.52527200          -0.37769100          -1.43717700         
H                    -1.71803500          -0.70556800          -1.19307200         
H                    -1.40665500          -1.50343500           0.40051800         
H                    -1.53438400           1.51383900          -0.08103600         
H                    -1.01811800           0.66652500           1.46102100         
H                     1.88768900           1.06811700          -0.24395500         
H                     0.50712500           1.92474400          -0.93228600         
H                     0.75205900           1.79474500           0.83823700         
