13

C                    -0.78033400          -1.13000500          -0.42240200         
C                     0.60813200          -0.52495800           0.47076100         
C                     1.66711600           0.30932500          -0.19257300         
C                    -0.84035200           0.21556600           0.39477100         
O                    -0.92471500           1.31741400          -0.17989300         
H                    -1.37281200           0.04306500           1.35231300         
H                    -1.30928700          -1.98143900          -0.02175700         
H                    -0.83515600          -0.96340300          -1.48906500         
H                     0.42057800          -1.47397500          -0.29060600         
H                     0.81083300          -1.01743400           1.41060900         
H                     1.16274400           1.18488700          -0.62038800         
H                     2.36531400           0.65266400           0.56698500         
H                     2.22813300          -0.20324600          -0.97228400         
