13

C                     0.84507200          -0.88681600          -0.11786200         
C                    -1.24831900           0.23425800          -0.03800000         
C                     1.61823000           0.03247600           0.62060200         
C                     2.67963200           0.35332200          -0.23959000         
O                    -0.58007400          -0.93017000          -0.02952200         
O                    -2.56219000           0.00530200           0.01762400         
O                    -0.76836200           1.32220000          -0.09381300         
H                    -2.74530900          -0.94478900           0.05435200         
H                     1.92347900          -0.61622500          -1.07410600         
H                     1.14257800          -1.92535400          -0.16748300         
H                     1.43737100           0.39468300           1.61862400         
H                     2.48397900           0.97706700          -1.09908100         
H                     3.67521200           0.53652000           0.16247800         
