13

C                    -1.41134900          -0.74778700          -0.03476900         
C                     0.77245300          -0.13144600          -0.09008200         
C                    -1.18093300           0.73572700           0.01891900         
C                    -0.17434100           1.06328700          -0.92575200         
O                    -0.08716000          -1.22990300          -0.22192800         
O                     0.27495600           0.53109600           1.26278200         
O                     1.95882800          -0.22298200          -0.24430700         
H                     0.42950500          -0.04848100           2.02891100         
H                    -2.03173200          -1.04430300          -0.88848500         
H                    -1.84495800          -1.15656800           0.88415400         
H                    -1.77187800           1.41726700           0.60883300         
H                     0.23700000           2.06156100          -0.90282900         
H                    -0.22591900           0.62615100          -1.91286200         
