13

C                     1.52775000          -0.70609900          -0.21872900         
C                    -0.67339400          -0.16697300           0.28346400         
C                     1.56101500           0.74355100           0.14101400         
C                     0.31831700           1.24646100           0.25661800         
O                     0.22457800          -1.16642900           0.07562400         
O                    -1.20375300           0.20164500          -1.27000700         
O                    -1.57880200          -0.21456000           1.07528900         
H                    -2.16060200           0.30160300          -1.25446300         
H                     2.23328200          -1.29458500           0.37715100         
H                     1.75945400          -0.86266800          -1.28282000         
H                     2.50047900           1.22615700           0.35989100         
H                    -0.36750700           1.18409500          -0.77838600         
H                     0.09657300           2.17850600           0.75717200         
