13

C                    -0.87542500           1.11866300           0.27753000         
C                     1.07756500          -0.04273400           0.07529400         
C                    -1.90724600           0.16666500          -0.00886700         
C                    -1.80998700          -1.04612300          -0.57073000         
O                     0.41308200           0.97258000          -0.33481600         
O                     2.27258000          -0.30429200          -0.42646100         
O                     0.60618300          -0.78196800           1.02982300         
H                     2.52763700           0.37500500          -1.06862500         
H                    -0.19234400          -0.20546100           1.36004300         
H                    -1.13665800           2.16532500           0.24852200         
H                    -2.87565500           0.50390500           0.33834800         
H                    -0.88639500          -1.44929100          -0.95353800         
H                    -2.68079800          -1.65886900          -0.71248200         
