9

C                    -1.28529600           0.36553800          -0.17847800         
C                     1.50485300           0.18400600           0.44853400         
C                    -0.19118000           1.08567100          -0.01081700         
O                    -1.46457700          -0.93119800           0.15604800         
O                     1.70246200          -0.60112100          -0.41149700         
H                    -0.63029400          -1.33066400           0.43320000         
H                    -2.20055500           0.76718200          -0.60865000         
H                     0.88549300           0.90218200           0.99930100         
H                    -0.12798800           2.10855900          -0.33569500         
