13

C                     1.53051300           1.13595800          -0.00009900         
C                    -2.18791700          -1.30054100          -0.00000300         
C                    -1.58956600           0.10170900          -0.00004300         
C                     2.10570400          -0.11552200           0.00003100         
O                    -0.27751000           0.10218900          -0.00046500         
O                    -2.25946800           1.10313200           0.00034900         
O                     3.08153300          -0.78205100           0.00026300         
H                     1.27779600           1.63582400           0.91868800         
H                     1.27816300           1.63578200          -0.91901000         
H                     0.90866400          -0.68632400          -0.00024400         
H                    -3.27077700          -1.22603000           0.00001200         
H                    -1.85134500          -1.83746900           0.88425600         
H                    -1.85134500          -1.83757300          -0.88419600         
