13

C                     0.24189300           1.20334900          -0.64062000         
C                     0.92067400          -1.45398800          -0.45038500         
C                     0.67710200          -0.23302700           0.34840300         
C                    -1.20411200           0.35085400           0.17070200         
O                     1.39493300           0.88274000           0.12134300         
O                    -0.25000300          -0.25991400           1.26858300         
O                    -1.81219300          -0.40641000          -0.54141000         
H                     0.32516800           0.91342500          -1.68557300         
H                    -0.02968400           2.24255600          -0.49976300         
H                    -1.60377700           1.19291000           0.72708500         
H                    -0.02332000          -1.67827700          -0.96772900         
H                     1.12039800          -2.28420000           0.22410400         
H                     1.73597700          -1.32086700          -1.15485300         
