13

C                    -1.11596900           1.05433300          -0.31657400         
C                     1.79057300          -0.48607700          -0.59395000         
C                     0.65184000           0.12762800           0.15147800         
C                    -0.90636200          -0.43180100           0.02363900         
O                     0.23521900           1.44257600          -0.21810900         
O                     0.40197800          -0.15554100           1.41358900         
O                    -1.19983600          -1.53972700          -0.38844900         
H                    -1.45570000           1.08922800          -1.35682200         
H                    -1.78657900           1.62741300           0.32794000         
H                    -0.97162600          -0.37378300           1.30137300         
H                     1.80144000          -1.55453200          -0.39404300         
H                     2.72759000          -0.04137300          -0.26360200         
H                     1.66549900          -0.30992500          -1.65866300         
