13

C                     0.58506900           1.29321100           0.26246700         
C                     0.15574600          -1.12307600           0.86484800         
C                    -1.12087200          -0.02590300          -0.18647200         
C                     0.99919800          -0.09372300          -0.30315500         
O                    -0.82267300           1.17502400           0.18376000         
O                    -2.07432400          -0.62482700          -0.50445900         
O                     2.12783500          -0.48853400          -0.55680000         
H                     0.90528000           1.45035600           1.29345200         
H                     0.92738600           2.11578200          -0.36803300         
H                     0.19635000          -0.13877600          -1.20937000         
H                    -0.06273400          -2.07952500           0.39745400         
H                    -0.59816800          -0.89590500           1.62663700         
H                     1.07032900          -1.24828700           1.45372500         
