17

C                    -1.18230900          -0.58461900          -0.27986000         
C                     2.19931500          -0.90210700           0.17272000         
C                    -2.64481700          -0.19915400          -0.12006000         
C                     0.47051500           0.66132800          -0.19989900         
C                     0.30145400           1.91754500           0.20633300         
O                    -0.45797200          -0.67271100           0.83548200         
O                     1.48881200           0.01621200          -0.66803800         
H                    -0.67703800           0.28950000          -0.94971600         
H                    -1.06844200          -1.45480800          -0.96365500         
H                     2.69365400          -1.60917100          -0.48951600         
H                     2.93605000          -0.35269100           0.76113400         
H                     1.48503300          -1.39746100           0.83318100         
H                     1.16915500           2.41983200           0.59334400         
H                    -0.65681800           2.35468200           0.38895800         
H                    -2.72688400           0.71760500           0.45775300         
H                    -3.13471300          -0.99449500           0.43816100         
H                    -3.13166400          -0.07896100          -1.08459700         
