17

C                    -2.02875700           0.26683300          -0.24783100         
C                     2.39761100          -0.93758900           0.04499000         
C                    -2.35886200          -1.00687600           0.43380800         
C                     0.53166400           0.47797600          -0.10459300         
C                    -0.08780000           1.68844400           0.17653800         
O                    -0.09673000          -0.48064300          -0.62233100         
O                     1.81697300           0.33390700           0.26661600         
H                    -2.34508600           1.14077500           0.29285800         
H                    -2.14115400           0.30876300          -1.31723200         
H                     2.68052200          -1.05101700          -1.00473200         
H                     3.28296300          -0.98697400           0.67591400         
H                     1.69025700          -1.72936200           0.30478200         
H                     0.39969800           2.38447400           0.84083200         
H                    -0.66495800           2.13721100          -0.60910300         
H                    -3.44702900          -1.06707000           0.53136300         
H                    -1.93855900          -1.02884500           1.43660500         
H                    -2.00174300          -1.86679600          -0.12303900         
