17

C                     1.90900600           0.06726400           0.59723700         
C                    -1.42938700          -1.59860000           0.41174000         
C                     2.45006100          -0.42536800          -0.75063200         
C                    -1.39851000           0.59685200          -0.26616200         
C                    -1.22877500           1.82849800          -0.09733000         
O                     0.62600300           0.57182700           0.51412400         
O                    -1.63963500          -0.60406100          -0.58643500         
H                     2.57339400           0.86004800           0.97875800         
H                     1.95391100          -0.76185500           1.32971000         
H                    -1.50064600          -2.56260000          -0.08726600         
H                    -0.43305700          -1.44300900           0.83537500         
H                    -2.17817400          -1.52239200           1.20293600         
H                    -1.81737100           2.71209100          -0.06832600         
H                    -0.03702300           1.79675700           0.26190200         
H                     3.46643100          -0.79548000          -0.63620500         
H                     2.44495000           0.38924900          -1.47166900         
H                     1.82227600          -1.22681200          -1.13584300         
