21

C                    -0.39419700          -1.73524100          -0.15441900         
C                    -0.38222700          -0.09665900           0.51167700         
O                    -1.74707800           0.19415900           0.52938300         
O                    -2.37263300           0.26919100          -0.75448500         
O                     0.14099100          -0.11398700           1.64405600         
H                    -3.28408000           0.45940700          -0.49556400         
H                     0.44470300          -2.42172700          -0.18955200         
H                    -0.97799200          -1.76773200          -1.06830000         
H                    -1.01288500          -2.09477800           0.67185400         
C                     1.08302000           1.96875900          -0.02242800         
C                     2.29301900          -0.72985100          -0.09555900         
C                     1.12028000          -0.44032500          -0.92723600         
C                     0.36867200           0.76993200          -0.61647100         
H                    -0.33913400           1.04817600          -1.39441100         
H                     0.99744200          -0.92648600          -1.88369300         
H                     1.92007400           2.27240100          -0.64859700         
H                     1.43721900           1.72662900           0.97704400         
H                     0.38795200           2.79992800           0.05862400         
H                     2.75724500          -1.68708500          -0.31628700         
H                     1.93964800          -0.69235600           0.95131200         
H                     3.02817900           0.06902800          -0.18744200         
