21

C                    -1.11402300          -1.63684500           0.34490500         
C                    -0.86106800          -0.32400900          -0.41581200         
O                    -1.63628100           0.72744800           0.11202000         
O                    -1.63606800           0.79491900           1.53768300         
O                    -1.14187600          -0.36614400          -1.71504900         
H                    -2.53278800           1.10450600           1.72033100         
H                    -2.18112400          -1.83673100           0.28080700         
H                    -0.81927900          -1.54914600           1.38700700         
H                    -0.58651900          -2.44861000          -0.14610200         
C                     3.02266000          -0.19488400           0.58308000         
C                     0.95365100           1.50885300          -0.66766000         
C                     0.70743900           0.03350200          -0.41907300         
C                     1.66720200          -0.69697000           0.29601400         
H                     1.43034000          -1.69785700           0.62497300         
H                     0.64538300          -0.47034700          -1.46686700         
H                     2.95078000           0.66337800           1.25671200         
H                     3.50298700           0.17649300          -0.32353400         
H                     3.65184300          -0.95375400           1.03868100         
H                     0.16070000           1.88648600          -1.30867600         
H                     1.91535800           1.68697900          -1.14459500         
H                     0.92095600           2.05093600           0.27529800         
