21

C                     0.54633400          -0.27530600           1.18743900         
C                     1.71469800          -0.42031900           0.36166800         
O                     2.06547100           0.64432600          -0.45481600         
O                     1.19930000           1.77158000          -0.40601000         
O                     2.44013200          -1.38059000           0.25273400         
H                     1.77366300           2.47012400          -0.74752500         
H                    -1.26237200          -0.29921600           1.11835800         
H                     0.36282300           0.73809300           1.51146300         
H                     0.48460000          -1.03795600           1.94932000         
C                    -2.36549000           1.29397900           0.25116600         
C                    -0.93323600          -0.93788200          -1.28215500         
C                    -2.09002300          -1.13267000          -0.47604700         
C                    -2.29804000          -0.19451100           0.59169300         
H                    -3.10696900          -0.47305800           1.26516700         
H                    -2.50425400          -2.12605700          -0.37941700         
H                    -1.46517700           1.62669600          -0.25577900         
H                    -2.47430100           1.87510000           1.16315900         
H                    -3.22537500           1.49333400          -0.38422100         
H                    -0.12159900          -0.83519000          -0.43989400         
H                    -0.85363300           0.02866900          -1.77231400         
H                    -0.69208800          -1.74281400          -1.96617300         
