21

C                    -0.87242700          -1.66994800           0.71424200         
C                    -0.41778100          -0.57899800          -0.25859300         
O                    -1.48961900           0.19325700          -0.73959000         
O                    -2.35103000           0.66039100           0.29358300         
O                     0.29746900          -0.94514300          -1.25745900         
H                    -3.20712900           0.66816300          -0.15454300         
H                    -1.40968600          -1.24969100           1.55856700         
H                    -0.00849700          -2.22871000           1.05869300         
H                    -1.53168900          -2.34539000           0.17129700         
C                     0.46464400           1.89011800          -0.05454000         
C                     2.53282200          -0.16983900          -0.28338200         
C                     1.73180300          -0.06021700           0.86990400         
C                     0.49540800           0.60397500           0.75559200         
H                    -0.09434600           0.67309300           1.66479800         
H                     1.86503500          -0.77503800           1.67168200         
H                     0.56730500           1.68781000          -1.11782200         
H                     1.27552400           2.54318700           0.26454100         
H                    -0.47661800           2.40782500           0.10212300         
H                     2.72458400           0.73498400          -0.84725400         
H                     1.63708300          -0.65617200          -0.97710400         
H                     3.39706000          -0.81864200          -0.22659400         
