21

C                     2.06178100           0.77862000           1.15871600         
C                     1.50232200          -0.41955200           0.45647200         
O                     0.59023300           0.24314500          -0.95946100         
O                     0.66159300           1.62266500          -1.17513200         
O                     2.05989100          -1.42146200           0.10089700         
H                     0.72830000           1.69232100          -2.13740800         
H                     2.28139300           0.49846800           2.18718400         
H                     1.36254900           1.60845500           1.14234400         
H                     2.98565000           1.07505600           0.66522400         
C                    -3.14191400           0.41752000           0.53802000         
C                    -1.09399500          -1.69235400          -0.56176600         
C                    -0.82936100          -0.38402200           0.07889600         
C                    -1.64783200           0.55822000           0.52756800         
H                    -1.25892900           1.48127900           0.92896000         
H                     0.30788400          -0.56633600           0.83000800         
H                    -3.45307900          -0.52372400           0.09631700         
H                    -3.59302500           1.23577500          -0.02288900         
H                    -3.51735800           0.46763100           1.56037900         
H                    -0.14335000          -2.16096000          -0.81333100         
H                    -1.66721100          -1.56731300          -1.47824000         
H                    -1.63257200          -2.34602500           0.12358600         
