21

C                    -1.14443200          -1.44939100           0.88345700         
C                    -0.47188900          -0.52732200          -0.13878400         
O                    -1.39477200           0.24645700          -0.83160900         
O                    -2.51842600           0.70313500          -0.07659300         
O                     0.29092100          -1.07185100          -1.03971900         
H                    -3.12483200           0.96442500          -0.78217200         
H                    -1.76222900          -0.87818400           1.56959100         
H                    -0.40372900          -2.02653900           1.42532000         
H                    -1.77305700          -2.13205000           0.31322600         
C                     2.69861000          -0.07469800          -0.45040300         
C                     0.60943600           1.88071000           0.31517500         
C                     0.56970700           0.46125600           0.83571000         
C                     1.65204700          -0.41736000           0.51500700         
H                     1.72971100          -1.35486100           1.04553200         
H                     0.19731400           0.39847500           1.85426000         
H                     2.21413100          -0.06606600          -1.43484300         
H                     3.50260700          -0.80348500          -0.46337400         
H                     3.08351400           0.92873300          -0.27093900         
H                     0.74939000           1.88914800          -0.76246900         
H                     1.41585500           2.44323600           0.78681600         
H                    -0.33133700           2.37608700           0.54144300         
