21

C                     2.86263600           0.59314100           0.28839900         
C                     1.39742900           0.23282300           0.03584700         
O                     1.10636300          -0.96656900           0.21912300         
O                     0.21195600          -1.94817100          -1.06942100         
O                     0.64139100           1.16729000          -0.29460600         
H                     0.72052700          -2.71964500          -0.81895900         
H                     3.39679200           0.48521300          -0.65327300         
H                     3.29166600          -0.08164500           1.02264100         
H                     2.92480100           1.62365000           0.62306400         
C                    -1.84831500           1.23159900          -1.04299500         
C                    -1.92523800          -1.16187300           0.71788700         
C                    -1.31719000           0.10261700           1.12975600         
C                    -1.17096300           1.19161500           0.29142700         
H                    -0.96599000           2.15284300           0.74903000         
H                    -0.85618700           0.14314200           2.10780000         
H                    -2.92733500           1.30757400          -0.90665100         
H                    -1.62362400           0.32677300          -1.60096000         
H                    -1.50534000           2.08989100          -1.61208000         
H                    -2.10586700          -1.82679200           1.55629100         
H                    -1.18595500          -1.63738200           0.03768600         
H                    -2.83131500          -1.02355900           0.13270900         
