10

C                     0.68090500           0.87193900           0.05866200         
C                    -1.29081000           0.53514900          -0.03805900         
O                     1.23352000          -0.26708600          -0.07261100         
O                    -0.28693400          -1.13212100           0.04861300         
H                    -0.54015300          -2.07940300           0.02741800         
H                     0.69620200           1.55099800          -0.79643200         
H                     0.73629400           1.35365300           1.03994200         
H                    -1.99571000          -0.15496000           0.41980900         
H                    -1.44331200           0.59968000          -1.10254800         
H                    -1.36658400           1.48115300           0.48018600         
