11

C                    -0.68103100          -0.16922100           0.45902000         
C                    -1.83374300          -0.13132300          -0.25038900         
O                     0.31661900           1.17883100          -0.05506000         
H                     0.31591900           2.14403400           0.12983500         
H                    -0.71258500          -0.05167000           1.53550800         
H                    -1.83074900          -0.20816700          -1.32255300         
H                    -2.78690200          -0.02171800           0.23501100         
C                     0.62189500          -0.98885300          -0.02279800         
O                     1.57543300          -0.04382700          -0.12918200         
H                     0.84546600          -1.72559200           0.75822500         
H                     0.38971000          -1.48053900          -0.97708300         
