11

C                     0.84510100           0.24730200           0.46812800         
C                    -0.30877500           0.92956200          -0.02781000         
O                     1.83252000          -0.14218100          -0.39981400         
H                     2.20792100          -0.99688600          -0.15013300         
H                     1.05676800           0.17898400           1.52521600         
H                    -0.28907600           1.22303500          -1.06764900         
H                    -0.84372600           1.59052500           0.63639800         
C                    -0.69874900          -0.71247700           0.18533000         
O                    -1.83924700          -0.13036200          -0.27105700         
H                    -0.82000500          -1.15040900           1.18825000         
H                    -0.28352600          -1.45122100          -0.51899900         
