12

C                    -0.36218300           0.10174600           0.53856500         
C                     1.65173500           0.14930100          -0.31684100         
C                     0.57224400           1.18643900           0.03819300         
O                    -0.66921500          -0.81582100          -0.31019100         
O                     1.06693000          -1.00446100           0.24875900         
O                    -2.05968800           0.28105800          -0.21492000         
H                    -2.68545700          -0.27634600           0.25698200         
H                    -0.62770900           0.01817300           1.59112700         
H                     1.82663900           0.02078400          -1.38970600         
H                     2.60437900           0.33132800           0.18895200         
H                     0.86422300           1.88474900           0.81610700         
H                     0.14292800           1.71018600          -0.81213700         
