11

C                    -1.30683500           0.85275800          -0.31694500         
C                    -1.11304900          -1.05837200          -0.03300500         
C                    -0.21753800           0.29597400           0.49434000         
C                     1.13979000           0.43656100           0.18931700         
O                     2.03679800          -0.21419600          -0.25887300         
H                    -0.37996000           0.40296700           1.56563600         
H                    -1.15633900           1.00222900          -1.36823700         
H                    -2.09083900           1.41576300           0.15721300         
H                    -0.56222100          -1.80753300           0.55451300         
H                    -2.16176300          -1.16962000           0.23940900         
H                    -0.95747200          -1.29176800          -1.07979100         
