11

C                     0.94268300           0.38883900           0.43365500         
C                     1.92576600          -0.55719900          -0.18916400         
C                    -0.19321600           0.94884400          -0.25394700         
C                    -1.03403700          -0.10196600          -0.07793800         
O                    -2.16828700          -0.48105800           0.06192800         
H                    -0.33481000           1.93603000          -0.64615600         
H                    -0.14624400          -0.81465900           0.49095400         
H                     1.39357100           0.97967200           1.23598900         
H                     1.49273300          -1.11143900          -1.01849800         
H                     2.75654900           0.04292800          -0.57125100         
H                     2.33732100          -1.25517300           0.53790200         
