16

C                    -0.61145700          -0.43704000           0.36741600         
C                     0.71296500          -0.41760400          -0.36458300         
C                    -1.66350700          -1.17348400          -0.18064300         
C                     1.84852600          -0.92909000           0.19495200         
H                    -0.47865900          -0.51152500           1.44360700         
H                     0.61436900          -0.45645600          -1.44356200         
H                    -1.63034800          -1.49092300          -1.20843700         
H                    -2.63586800          -1.15103000           0.28179200         
H                     2.78297800          -0.92286400          -0.33884900         
H                     1.89849300          -1.14742500           1.24806600         
C                    -0.81992800           1.29037500           0.18415300         
C                     0.55031500           1.49237700          -0.19092600         
H                    -1.15360700           1.66262200           1.14258400         
H                    -1.55333900           1.45161800          -0.59549700         
H                     0.79676200           1.86108100          -1.17201800         
H                     1.25772900           1.75169900           0.58010800         
