16

C                     0.68288200           0.39787800          -0.51711500         
C                    -0.81447300           0.14847400          -0.52445800         
C                     1.23133300           1.44826200           0.20138600         
C                    -1.69034100           0.88456100           0.22660300         
H                     1.12527800           0.22726900          -1.49466100         
H                    -1.18072000          -0.20774400          -1.48106900         
H                     0.70481600           1.92561500           1.00562900         
H                     2.29226900           1.62730200           0.15889900         
H                    -2.74904000           0.70166600           0.15794900         
H                    -1.36945300           1.48859700           1.05434500         
C                     0.97696100          -1.20254900           0.23963900         
C                    -0.41426400          -1.54424000           0.23516900         
H                     1.63245800          -1.72296500          -0.44305900         
H                     1.43465800          -1.01946600           1.20127200         
H                    -0.94250200          -1.57343500           1.17431300         
H                    -0.78035100          -2.24115400          -0.50096000         
