16

C                    -0.24006100           0.71349500           0.25837900         
C                     1.09409800           0.56580000          -0.32708200         
C                    -1.13164300           1.63513800          -0.22072700         
C                     2.08006700          -0.17595000           0.14978700         
H                     0.20868400           0.85467400           1.97021400         
H                     1.23261800           1.13870700          -1.23458200         
H                    -0.78813500           2.38563300          -0.90647800         
H                    -2.09878700           1.78559200           0.21919800         
H                     3.03416800          -0.23141600          -0.34488300         
H                     1.98220200          -0.72316100           1.07303300         
C                    -1.14126200          -0.79375900           0.25864700         
C                    -0.64808700          -1.89946700          -0.29613300         
H                    -0.56190200          -0.16571300           1.10883700         
H                    -2.20213000          -0.59891800           0.29227100         
H                    -1.29614000          -2.63474200          -0.74469000         
H                     0.41075500          -2.08220100          -0.37014900         
