16

C                     0.39508800           0.42616000           0.46138300         
C                     1.48769700           0.02043800          -0.41729600         
C                    -0.50461200           1.47328200           0.04125000         
C                     2.60908100          -0.56115100          -0.00851700         
H                     0.62699100           0.37809100           1.52079900         
H                     1.33549600           0.21471900          -1.47202700         
H                    -0.76855300           2.20182600           0.79806300         
H                    -0.26598600           1.93822700          -0.90840500         
H                     3.38965100          -0.84004300          -0.69440500         
H                     2.78960900          -0.77029200           1.03332400         
C                    -1.61170800          -1.22015400           0.12527300         
C                    -2.40458200          -0.31613800          -0.23757100         
H                    -0.47096200          -0.67229300           0.37121900         
H                    -1.51764700          -2.26509900           0.30464300         
H                    -1.57976500           0.88516100          -0.18226000         
H                    -3.36461900          -0.00491600          -0.55809100         
