12

C                    -1.22881400           0.91048400           0.17096600         
C                     1.03887800           0.12594600           0.36848900         
C                     0.15054300           0.89434200          -0.44167600         
O                    -1.62415100          -0.47178800           0.26916900         
O                    -0.69316700          -1.27287100          -0.36227900         
O                     2.27591700          -0.11847700          -0.02710400         
H                    -0.13804800          -0.09068900          -1.14369200         
H                     2.71588300          -0.78441600           0.51653700         
H                    -1.95318800           1.43266600          -0.46570900         
H                    -1.27776200           1.32509100           1.18161800         
H                     0.69987600          -0.28432400           1.31142200         
H                     0.52080600           1.72212600          -1.02514200         
