12

C                     1.54861000           0.13604600          -0.50962400         
C                    -0.54133100           0.69473500           0.42996700         
C                    -1.27908100          -0.51409900          -0.00065800         
O                     0.66001700           1.09131000           0.04498900         
O                     1.72534800          -0.98116800           0.27639700         
O                    -2.53252700          -0.22901000          -0.19613400         
H                     2.16214600          -0.74911400           1.10587500         
H                     2.47776400           0.69372300          -0.68747900         
H                     1.13443900          -0.22679000          -1.46488200         
H                    -1.07533400          -1.37517000           0.68770800         
H                    -1.14271400           1.52862600           0.77716100         
H                    -0.74819600          -0.82042000          -0.93850300         
