12

C                    -1.67015000          -0.14749800           0.32871600         
C                     0.56409200          -0.81257300          -0.01294600         
C                     1.31453400           0.28706200          -0.44797300         
O                    -0.78766100          -1.04226900          -0.29545000         
O                    -1.55550600           1.16748900          -0.09925600         
O                     2.31871900           0.44489100           0.32674900         
H                    -0.71288500           1.53845600           0.19378400         
H                    -1.54956200          -0.21142900           1.42749600         
H                    -2.67037500          -0.48224700           0.04382200         
H                     1.66053000          -0.59107100           1.01609500         
H                     1.09406600          -1.76251200          -0.09126300         
H                     1.12294800           0.98597100          -1.25306400         
