12

C                    -1.29796800          -0.76926600           0.12699400         
C                    -0.20215500           1.25752600          -0.25878800         
C                     1.06186500          -0.03658400           0.37217000         
O                    -1.39060700           0.67919700           0.21008700         
O                    -0.10000000          -1.12422100          -0.41728000         
O                     2.17813600          -0.07552200          -0.02296600         
H                     0.16140100           0.10642000          -0.78741500         
H                    -2.11942100          -1.12477000          -0.50928700         
H                    -1.42978100          -1.15883900           1.14809900         
H                    -0.30345800           1.69999500          -1.26528100         
H                     0.13386800           2.04105800           0.41994200         
H                     0.68670800          -0.10954700           1.39295100         
