12

C                    -1.82519900           0.41013400          -0.15761600         
C                     0.37518000          -0.81325600          -0.16246800         
C                     1.64181200          -0.08739000          -0.41870400         
O                    -1.78492200          -0.79375200           0.32617600         
O                    -0.46563700           0.95551500          -0.00462300         
O                     2.44834500           0.17859700           0.43381900         
H                    -0.28546300           1.08903600           0.94026700         
H                    -2.49098200           1.10479900           0.39106100         
H                    -2.02091400           0.49957400          -1.24567700         
H                     0.31476500          -1.32632300           0.78609400         
H                    -0.06542300          -1.31969600          -1.00507100         
H                     1.81497400           0.17280200          -1.47691400         
