10

C                     0.23644100           1.05727300           0.00000100         
C                     1.49706200          -0.59871500           0.00000000         
C                    -0.65438300           0.07511300          -0.00000000         
O                    -1.42920400          -0.75577100           0.00000100         
H                    -1.29269500           2.19953200          -0.00000500         
H                     0.55193300           1.51570700           0.91753400         
H                     0.55189200           1.51572400          -0.91753700         
H                     1.36685800          -1.17563000           0.90045900         
H                     1.36618800          -1.17642600          -0.89985500         
H                     2.41473300          -0.03475800          -0.00060700         
