17

C                     0.89180700           1.19462700          -0.25377200         
C                    -0.46861200           1.48173200           0.12032800         
C                    -1.82446700          -0.05202000           0.55645900         
C                    -2.26328000          -0.73625600          -0.72857200         
C                     1.41721800          -0.36981300           0.05189500         
O                     0.55629200          -1.03669500           0.63586200         
O                     2.53062600          -0.58981800          -0.32956500         
H                    -0.61213700           1.99474100           1.05958300         
H                     1.62443700           1.72889200           0.34474200         
H                     1.09083000           1.29378200          -1.31607900         
H                    -0.63079700          -0.22242100           0.61863900         
H                    -1.13156700           1.79040900          -0.67114400         
H                    -1.95549400          -0.74000600           1.40570100         
H                    -2.45775100           0.79926100           0.78449200         
H                    -1.62476300          -1.58896400          -0.94276500         
H                    -2.22657500          -0.05957100          -1.57930400         
H                    -3.28753200          -1.09364100          -0.63226400         
