17

C                    -0.16275900          -1.23290900          -0.43533600         
C                    -1.44303600          -0.83702700           0.28348500         
C                    -1.72431800           0.60937700          -0.13681300         
C                    -0.38307800           1.33887100          -0.14478900         
C                     0.82767000          -0.10931900          -0.31839800         
O                     1.13399400          -0.04386500           1.38525400         
O                     1.81894200           0.11667400          -0.95016500         
H                     2.04868900           0.23839700           1.48038900         
H                    -0.34134900          -1.39176200          -1.50059600         
H                     0.28480300          -2.13193300          -0.01295800         
H                    -2.26745100          -1.50136400           0.02856200         
H                    -1.27930800          -0.88778600           1.36049600         
H                    -2.17127100           0.61338000          -1.13249600         
H                    -2.43602800           1.07191100           0.54822800         
H                     0.37156100           0.83655100           0.86069400         
H                    -0.39017900           2.21518500           0.52185300         
H                    -0.12982400           1.74099200          -1.12378600         
