10

C                     0.88222500           0.64515700           0.18152100         
O                     1.34526900          -0.61937100          -0.16114500         
H                     0.56614900          -1.22895100          -0.16960500         
H                    -0.26478400           0.10205600           0.61332100         
H                     1.19966700           1.40195500          -0.53483100         
H                     1.17834300           0.94477700           1.19811500         
C                    -0.98667300           0.55277000          -0.20853700         
O                    -1.29672800          -0.69553000           0.16782600         
H                    -1.50367800           1.38619800           0.29606200         
H                    -0.93733000           0.72560600          -1.29441800         
