10

C                     0.82089400           0.48549800           0.38389000         
O                     1.68415300          -0.39679300          -0.25670300         
H                     1.54317500          -1.29844400           0.05438000         
H                    -0.46184900          -0.12029800           0.55260800         
H                     1.06239600           1.48745300           0.04133500         
H                     0.89566500           0.44704100           1.48079800         
C                    -0.94532200           0.36453300          -0.41808700         
O                    -1.73605200          -0.49031200           0.24396600         
H                    -1.25418000           1.42130100          -0.39620800         
H                    -0.62344700           0.05959800          -1.42584400         
