10

C                     1.43981600          -0.44704800           0.02416300         
O                     0.63258000           0.69277500          -0.13878900         
H                     0.03197500           1.23882300           0.91265300         
H                     2.18689400          -0.26033200           0.79632200         
H                     1.93455400          -0.67333400          -0.92228600         
H                     0.81117300          -1.29721400           0.31454100         
C                    -0.98969300           0.35198200          -0.14022400         
O                    -1.28808700          -0.78045100           0.06444400         
H                    -1.05174000           1.22385400           1.08091100         
H                    -1.36954000           1.04000500          -0.89101200         
