17

C                     1.98879400          -0.19574500          -0.60946000         
C                    -2.87709300          -0.39242500          -0.02464900         
C                     2.95869000          -0.14116800           0.57310600         
C                    -0.39792900           0.10908900          -0.01212300         
C                     0.77457800           0.64982800          -0.38742500         
O                    -0.82879100          -1.06593900           0.07660700         
O                    -1.49752500           0.96156200           0.30465000         
H                    -1.47991300           1.84658700          -0.10051300         
H                     0.90554700           1.72095900          -0.35137000         
H                     1.66577200          -1.22607400          -0.76628100         
H                     2.50650500           0.15055100          -1.50914700         
H                    -2.92888600          -1.09505400           0.78497400         
H                    -2.78994800          -0.81160000          -1.00948100         
H                    -3.54247900           0.45547300           0.06587300         
H                     2.47130400          -0.50958000           1.47264500         
H                     3.83441100          -0.75528300           0.37546700         
H                     3.28598600           0.88156100           0.75108500         
