17

C                    -1.89328900           0.14092300          -0.59887800         
C                     2.32003200          -1.06703400          -0.07900400         
C                    -2.49535600          -0.83924000           0.40864500         
C                     0.54902300           0.44071900           0.09017600         
C                    -0.75384700           0.95084100          -0.01823800         
O                     0.92334900          -0.81183300          -0.03269000         
O                     1.39581900           1.42609900           0.17334800         
H                     0.27267800           2.06486800          -0.10433500         
H                    -1.06214100           1.51249900           0.86198000         
H                    -2.67049400           0.82709900          -0.94385100         
H                    -1.52626500          -0.41472700          -1.46391800         
H                     2.72105800          -1.13051400           0.93482000         
H                     2.83268800          -0.26415700          -0.61325300         
H                     2.44770000          -2.01856200          -0.59114600         
H                    -1.73254200          -1.53377000           0.75246600         
H                    -2.89139400          -0.30574700           1.27070400         
H                    -3.30401600          -1.40837800          -0.04494100         
