17

C                     0.97904300          -1.30336400           0.54459300         
C                     0.33118000           1.58343100          -0.04365000         
C                     2.60869900           0.13078900          -0.35945600         
C                    -1.11487900          -0.18414500           0.01212600         
C                    -0.19938800          -1.20894600          -0.16525600         
O                    -0.84820000           1.03760500           0.48838200         
O                    -2.40823000          -0.38172700          -0.33916600         
H                    -2.92089000           0.40202300          -0.09969700         
H                    -0.49631000          -2.00347800          -0.83377700         
H                     1.10181500          -0.74120900           1.45174300         
H                     1.57390300          -2.19274800           0.44527400         
H                     1.48781200           0.70681900          -0.07042200         
H                     0.59010600           2.46143800           0.53225700         
H                     0.24135800           1.76624000          -1.10907700         
H                     3.20217700          -0.26716900           0.44923100         
H                     2.57842900          -0.54881700          -1.19728100         
H                     3.06510900           1.06329200          -0.69212300         
