17

C                     1.37788600          -0.55730100           0.38685000         
C                    -0.47692700           1.89025900          -0.10572800         
C                     2.71364200           0.00447300          -0.03803500         
C                    -0.85856600          -0.46169600           0.09888400         
C                     0.34949400          -0.81653400          -0.55300300         
O                    -1.37138500           0.84074000           0.12151700         
O                    -1.92475400          -1.31815100           0.01813800         
H                    -2.74425600          -0.81438800           0.11236300         
H                     0.44749900          -1.29082700          -1.51435900         
H                     0.13277900          -0.13818400           1.20967500         
H                     1.48633800          -1.21225300           1.24368600         
H                    -1.07848800           2.79559900          -0.14987700         
H                     0.06778500           1.74356800          -1.04453300         
H                     0.25229000           1.96524100           0.71137300         
H                     3.15199200           0.59671400           0.76309800         
H                     3.40352500          -0.81046700          -0.26019800         
H                     2.61647700           0.62907000          -0.92228000         
