17

C                     1.32643000          -0.55978300           0.54659000         
C                     0.02966600           1.89918000          -0.23574800         
C                     2.69076600          -0.34021700          -0.10333300         
C                    -1.12499700          -0.28004400          -0.01396500         
C                     0.20224900          -0.44075000          -0.46311200         
O                    -1.52187800           0.83430300           0.40993500         
O                    -2.00079200          -1.27729100          -0.14501500         
H                    -2.88922500          -0.97617300           0.09970700         
H                     0.31507400          -1.19577800          -1.24185700         
H                     1.18188100           0.12576500           1.38367900         
H                     1.31720400          -1.57662500           0.96370800         
H                     1.06038600           1.77442600           0.03149300         
H                    -0.46452100           2.66029100           0.34867400         
H                    -0.18623200           1.93861100          -1.28620600         
H                     3.48032200          -0.44989900           0.63707000         
H                     2.84978700          -1.07516000          -0.88882900         
H                     2.77200300           0.64812700          -0.54939000         
