17

C                     1.82969500           0.11673800          -0.60712000         
C                    -1.80534200           1.35998500           0.47051100         
C                     2.51496100           0.34193700           0.71092100         
C                    -0.31168000          -0.06844100          -0.49371500         
C                     0.30460700          -1.09181500          -0.16044900         
O                    -1.00508600           0.96873700          -0.65846200         
O                    -1.50896000          -1.67553000           0.39221000         
H                    -1.85519500          -2.27873500          -0.26791000         
H                     0.74308800          -2.04200400          -0.07442500         
H                     2.33092900          -0.58485600          -1.26103800         
H                     1.61765700           1.03833300          -1.13676800         
H                    -1.19356300           1.89623000           1.19738400         
H                    -2.22149200           0.45490500           0.92201800         
H                    -2.58765700           2.00710700           0.08046000         
H                     1.91404500           0.97879200           1.35619900         
H                     2.69004800          -0.59787800           1.22853800         
H                     3.48106400           0.83201800           0.56467400         
