13

C                     0.91853100           0.11863200           0.65684600         
C                     0.44809800           1.39423300           0.01071600         
C                     2.23937200          -0.65456500          -0.56766500         
C                    -1.19212300          -0.18106500          -0.03879900         
O                    -0.09639700          -0.75989700           0.66789700         
O                    -0.88714200           1.02484600          -0.39927800         
O                    -2.18337300          -0.79646000          -0.25024600         
H                     1.56061600           0.10091400           1.53139200         
H                     1.47547700           0.46084000          -0.54539500         
H                     0.40156000           2.27441500           0.64333400         
H                     2.06431700          -0.72520100          -1.64219100         
H                     3.22836600          -0.27291100          -0.34333200         
H                     2.12169400          -1.64938800          -0.15737000         
