13

C                     1.04329200          -0.12094500           0.35486600         
C                     0.95253400           1.31801600           0.27847400         
C                     1.95271600          -0.86473000          -0.60103800         
C                    -1.34415000           0.00685100          -0.12002800         
O                    -0.02959700          -0.70036600           0.78792000         
O                    -0.94252200           1.04548800          -0.57550700         
O                    -2.25354300          -0.72545700          -0.06053500         
H                     1.75545900           0.42659900           1.21721800         
H                     0.35527800           1.86238200           0.99022900         
H                     1.59414600           1.89180300          -0.37327200         
H                     2.84878600          -0.29488100          -0.82831500         
H                     1.40069400          -1.05168700          -1.52034600         
H                     2.22457500          -1.82669400          -0.17418700         
