6

C                    -0.31897600          -0.36106800           0.36982200         
O                     0.84787200          -0.59148700          -0.34486300         
O                     0.77162500           0.72291600           0.18387400         
O                    -1.30959000           0.11878700          -0.21851100         
H                    -0.20371000           1.02872300          -0.51800100         
H                    -0.36168500          -0.86403700           1.33506700         
