12

C                    -0.52834200          -0.38578900           0.70923200         
C                    -1.55686200          -0.43442600          -0.26754200         
C                     2.01920200           0.35551100          -0.18559300         
O                     0.95933400           0.99776500           0.08776700         
O                    -2.72510600           0.24888400          -0.06804500         
O                     2.17197200          -0.84931000          -0.14443000         
H                    -3.21592400           0.36179000          -0.89002200         
H                     2.86910100           1.01215800          -0.50281200         
H                    -0.68600800           0.18498700           1.61132700         
H                     0.27204000          -1.11783800           0.69668900         
H                    -0.55058400           0.34860100          -0.39945200         
H                    -1.54221700          -1.18018900          -1.05464400         
