12

C                     0.46463900           0.24373100           0.76225700         
C                     1.24536700          -0.04395400          -0.48699700         
C                    -1.57772700           0.05300500           0.18662400         
O                    -1.12631200           1.05031700          -0.42017000         
O                     2.53615500          -0.40490300          -0.04559300         
O                    -2.09904900          -0.97246300          -0.14572600         
H                     2.99952000           0.37445800           0.28380000         
H                    -1.43843400           0.18329600           1.35984600         
H                     0.50004200          -0.58460100           1.46131100         
H                     0.55840600           1.23131700           1.19305000         
H                     0.84455300          -0.91548500          -1.00892000         
H                     1.25589500           0.81071200          -1.16848500         
