12

C                    -0.31763600           0.34071000          -0.56089900         
C                    -1.43887900           0.18790600           0.48039900         
C                     2.18188700          -0.05186000           0.42946800         
O                     0.70138300           1.14554200          -0.12930400         
O                    -2.45871900          -0.67601800           0.04691600         
O                     2.02766500          -1.02477100          -0.16242600         
H                    -2.85155300          -0.31778400          -0.75693200         
H                     1.65865800           0.87090500           0.81310500         
H                     0.06729700          -0.66672500          -0.82570400         
H                    -0.71846200           0.77488300          -1.48880000         
H                    -1.03365100          -0.26111400           1.39191100         
H                    -1.83716400           1.18128200           0.73111200         
