12

C                    -0.34474100          -0.72758100           0.52954800         
C                    -1.77510500          -0.22453000           0.26731000         
C                     2.11481100           0.05736600          -0.37807500         
O                     0.34004800          -0.79701700          -0.65959800         
O                    -1.77553000           1.04807300          -0.31865400         
O                     1.98225400           0.75117500           0.52761100         
H                    -1.19144100           1.00427000          -1.08684900         
H                     1.68404000          -0.85184400          -0.89179300         
H                     0.14690900          -0.00294600           1.20882900         
H                    -0.38086900          -1.70858600           1.02812700         
H                    -2.28963500          -0.94962300          -0.37923500         
H                    -2.31298200          -0.14064700           1.21334900         
