17

C                     0.21988900           0.56659600           0.10844000         
C                     1.26951800           0.22819500          -0.96001200         
C                     0.80237300          -0.50208000           1.04179600         
C                     1.73558900          -0.95343800          -0.09366000         
C                    -2.10381400          -0.90691900          -0.01526500         
O                    -1.28274800           0.11855500          -0.52045800         
O                    -0.18836500           1.73885000           0.44142400         
H                    -1.35819000           1.20892000          -0.11675500         
H                     1.99671500           1.03113500          -1.05395300         
H                     0.87265600          -0.01335700          -1.94174800         
H                     0.11447500          -1.24833900           1.43073300         
H                     1.31385500          -0.02697900           1.87649500         
H                     2.79402100          -0.95366300           0.15425500         
H                     1.46869900          -1.92272900          -0.50997500         
H                    -1.67151900          -1.87343000          -0.27962000         
H                    -3.08454600          -0.81705900          -0.48571000         
H                    -2.21858800          -0.83785400           1.07075800         
