17

C                    -0.65797600           0.62103600          -0.02030500         
C                    -1.32429400          -0.20356600           1.03190600         
C                    -0.78658100          -0.37154500          -1.02561100         
C                    -1.62165500          -1.23713800          -0.07900900         
C                     2.71062900          -0.41501300           0.21683800         
O                     1.39377400          -0.20682300          -0.13293500         
O                    -0.38356000           1.90841000           0.01201800         
H                     0.07155500           2.17916800          -0.79764400         
H                    -2.19410400           0.26747500           1.48770400         
H                    -0.65640300          -0.55004300           1.81578900         
H                     0.43091300          -0.74478300          -0.93793300         
H                    -0.98592000          -0.21020700          -2.07538000         
H                    -2.67676200          -1.28512900          -0.34166200         
H                    -1.24699100          -2.24095200           0.10152800         
H                     3.00287500           0.31988200           0.97796100         
H                     3.38479900          -0.29090000          -0.64563800         
H                     2.86759900          -1.41985300           0.63969700         
