17

C                     0.38029900           0.24340100           0.04748600         
C                     0.15795000          -0.94625900          -0.65955800         
C                     1.57788400           0.11313100           0.92491500         
C                     2.23679900          -0.40471500          -0.32351800         
C                    -2.56725900           0.00249700           0.01131700         
O                    -1.43908000          -0.56480400           0.53937200         
O                     0.06073200           1.41222400          -0.49128800         
H                     0.24890200           2.13536000           0.12234500         
H                    -0.32684600          -0.93286400          -1.62010200         
H                     0.32587300          -1.88865600          -0.18367900         
H                     1.48231600          -0.62829300           1.70886500         
H                     1.94398100           1.05733400           1.32296400         
H                     2.65328700           0.30911000          -1.01048700         
H                     2.67091200          -1.38483700          -0.32778000         
H                    -3.24331300           0.31503500           0.82177900         
H                    -3.11098000          -0.70611000          -0.63061400         
H                    -2.33139800           0.89623600          -0.59182100         
