12

C                     0.12635200           0.07744300           0.27496500         
C                     0.05507500           1.56286600          -0.13176400         
C                     1.11516600          -0.71285700          -0.37489500         
O                    -1.06848200          -0.47588700           0.62525600         
O                    -2.12276100          -0.33079700          -0.39932200         
O                     2.26369000          -0.37326600           0.04995700         
H                    -2.87781400          -0.70850800           0.06416500         
H                     1.46824600           0.37891300           0.88893300         
H                     1.00168100          -1.54754800          -1.05706600         
H                    -0.71863000           1.65735200          -0.89491800         
H                     0.99692000           1.91979400          -0.53890200         
H                    -0.22953200           2.17488400           0.72082400         
