17

C                    -0.58587300          -0.63449800           0.03412200         
C                    -1.93514400          -0.32199200           0.65384100         
C                     2.86185000          -0.17738300           0.16635500         
C                    -2.97717000           0.07873700          -0.38877800         
C                     0.29618300           0.39974200          -0.15610700         
O                     1.67959000          -0.66724100          -0.40279300         
O                     0.59339300           1.52026000           0.03264300         
H                     0.77174400          -1.18992200           0.29607900         
H                    -0.63109100          -1.39925400          -0.73257000         
H                    -2.28154500          -1.20985500           1.18883000         
H                    -1.81803900           0.48556500           1.37866600         
H                     3.69037600          -0.39027200          -0.51190600         
H                     2.77095100           0.90872500           0.29183100         
H                     3.05958300          -0.63452000           1.13897200         
H                    -3.93231700           0.28888300           0.08720000         
H                    -2.65142100           0.96980300          -0.92001300         
H                    -3.12117600          -0.72094000          -1.11249300         
