17

C                    -0.68400800          -0.80191100          -0.04388900         
C                    -1.98778200          -0.42924800           0.50063900         
C                     2.82362600           0.16643700          -0.18488400         
C                    -2.73760300           0.42219700          -0.54632100         
C                     0.53814900          -0.08546200           0.33574500         
O                     1.67927700          -0.65509000          -0.27206900         
O                     0.34121000           1.20530000           0.25296400         
H                     0.61758900          -0.39192400           1.45040200         
H                    -0.65865800          -1.46733200          -0.89986200         
H                    -2.57823800          -1.32872900           0.69871300         
H                    -1.86996200           0.15824000           1.41174200         
H                     2.56379900           1.19624000          -0.44637700         
H                     3.24166800           0.15021500           0.82806800         
H                     3.54625500          -0.23928000          -0.88944100         
H                    -3.71466600           0.69172100          -0.15498100         
H                    -2.16162800           1.32314500          -0.73698100         
H                    -2.86433900          -0.12605000          -1.47618000         
