17

C                     0.52877600           0.10353700          -0.99838100         
C                     1.82005000           0.47265700          -0.28411000         
C                    -1.56592400          -1.12638100           0.38763200         
C                     2.38573400          -0.68807400           0.52712400         
C                    -0.94682600           0.41983400           0.05868800         
O                    -1.99528900          -0.13591100          -0.55024600         
O                    -0.79009100           1.32035800           0.83925700         
H                     0.23946300           0.89692200          -1.68729200         
H                     0.60580100          -0.81627500          -1.58581200         
H                     2.56143200           0.80217300          -1.01566400         
H                     1.60723000           1.31417700           0.37981700         
H                    -0.11626000          -0.59634200           0.03314600         
H                    -1.39265600          -2.08898400          -0.08215400         
H                    -2.14790800          -1.14477300           1.29830500         
H                     2.57452700          -1.55170200          -0.10868200         
H                     3.32433000          -0.39982400           0.99262400         
H                     1.69622000          -0.98039300           1.31790400         
