17

C                    -0.68800700          -0.47702200          -0.43573400         
C                    -1.82491000          -0.25312200           0.56801600         
C                     2.92090600          -0.03516900           0.11966600         
C                    -3.13903900           0.07963600          -0.13363100         
C                     0.59738400          -0.01677100          -0.10256800         
O                     1.69340400          -0.73688500          -0.02304800         
O                     0.60494800           1.28442500          -0.05178200         
H                    -0.57194400           1.02032500          -0.56067200         
H                    -0.76104300          -1.45728600          -0.90083200         
H                    -1.96755200          -1.16310500           1.16234300         
H                    -1.56880800           0.55314800           1.26051200         
H                     2.88180800           0.90713700          -0.43139300         
H                     3.10613400           0.17803600           1.17450400         
H                     3.70147900          -0.68370600          -0.27276000         
H                    -3.94741100           0.15358000           0.59045700         
H                    -3.06669600           1.02472200          -0.66779300         
H                    -3.39078300          -0.69848200          -0.85021500         
