17

C                     0.46868500          -0.82255300           0.78075400         
C                     1.43331300          -0.72916600          -0.26370700         
C                    -2.49959400          -0.24098800           0.16783600         
C                     2.59237300           0.18543300          -0.10360200         
C                    -0.28783300           0.38346300          -0.21183400         
O                    -1.40369900          -0.24012000          -0.73409600         
O                    -0.22478400           1.50988400           0.28257400         
H                    -0.13069400          -1.71899900           0.84081600         
H                     0.70305800          -0.36644800           1.73087100         
H                     0.45768500           0.24091500          -1.17958300         
H                     1.47018500          -1.50051200          -1.02213200         
H                    -2.32273600          -0.91729500           1.00985700         
H                    -2.67123300           0.76898400           0.54714600         
H                    -3.35616700          -0.57985000          -0.41021000         
H                     3.13408900           0.33552200          -1.03361100         
H                     2.22696000           1.14505200           0.26994300         
H                     3.27505600          -0.22260800           0.64239700         
