9

C                    -1.53345700          -0.11245500           0.00036700         
C                    -0.71691900           1.02944000          -0.00028600         
C                     0.63814000          -0.11312200          -0.00010200         
O                     0.12874200          -1.23837500          -0.00025800         
O                     1.71366900           0.36841000           0.00024600         
H                    -1.90934400          -0.53712500           0.91873900         
H                    -1.91020100          -0.53763200          -0.91741600         
H                    -0.62290200           1.60602100           0.90875700         
H                    -0.62342500           1.60527700          -0.90985800         
