15

C                     1.39289800           0.59903000           0.74772800         
C                    -1.08100700          -0.70112800           0.92172200         
C                    -0.35394300           0.16851400          -0.04751600         
C                    -0.86909400           1.18083900          -0.72627900         
H                     1.75650300           1.47521000           0.22166400         
H                     2.23995700          -0.01175200           1.08693400         
H                     0.88171500           0.92002400           1.64839300         
H                    -1.84569100          -1.27742600           0.40173100         
H                    -1.56875000          -0.08384600           1.67530100         
H                    -0.41455700          -1.39455000           1.42827900         
H                    -0.30841600           1.75899600          -1.43283100         
H                    -1.91076400           1.42074300          -0.60947900         
O                     0.63011900          -1.01189000          -1.09160800         
H                     1.17822000          -0.27168600          -0.17768700         
H                     0.41770400          -1.92412100          -0.88337000         
