15

C                     1.39101200          -0.03725700          -0.95851500         
C                    -1.12411700          -1.08676300          -0.33115700         
C                    -0.34530000           0.15276900          -0.06838200         
C                    -0.80373300           1.39712300          -0.11420800         
H                     1.79994500           0.96335600          -1.05850800         
H                     0.87813500          -0.29765400          -1.87703300         
H                     2.20192000          -0.76867800          -0.85325600         
H                    -2.00423900          -1.10596400           0.30827800         
H                    -0.52866200          -1.96604600          -0.10690100         
H                    -1.44201600          -1.12516400          -1.37224700         
H                    -0.20209900           2.26394700           0.08176900         
H                    -1.83612100           1.56766800          -0.35923600         
O                     0.58041500          -0.29776300           1.46747600         
H                     1.14831000          -0.17955500           0.29795000         
H                     0.63433100           0.47496400           2.03295100         
