8

C                    -0.28354600           0.96426000          -0.00001700         
C                     0.66647400          -0.04064600           0.00001200         
O                    -1.58622500          -0.49223200           0.00014500         
O                     1.81558300          -0.33499800          -0.00004400         
H                    -2.53600700          -0.72917100          -0.00092400         
H                    -0.62974200           1.39815200          -0.92079600         
H                    -0.62962800           1.39812000           0.92082000         
H                    -0.33705200          -0.99093700           0.00012300         
