8

C                     0.67974600           1.06607000          -0.11232200         
C                    -0.22019000           0.02203700           0.40666600         
O                     0.74946100          -1.05230800          -0.03091300         
O                    -1.36133800           0.03577600          -0.18166200         
H                     0.46546900          -1.32417300          -0.91481500         
H                     1.31146800           1.68910900           0.50281200         
H                     0.58992300           1.30036400          -1.16211900         
H                    -0.22918400          -0.06168700           1.50865300         
