9

C                    -0.05784800           0.61863300          -0.15453400         
C                    -0.99348400          -0.43605600          -0.28006100         
C                     1.36747000           0.42309100           0.01925800         
O                    -2.09254000          -0.11857800           0.25264200         
O                     1.92312900          -0.64402800           0.13813600         
H                    -0.84015100          -1.42137500          -0.70616600         
H                     1.93530200           1.37200100           0.10482100         
H                    -1.29700600           0.96863400           0.61032900         
H                    -0.33968100           1.54758600          -0.64318400         
