16

C                     1.13846100           1.23828100           0.66372400         
C                    -1.70389000           0.66896900          -1.01855200         
C                     0.85729000          -0.05439500          -0.03719700         
C                    -0.33314900          -0.57543800          -0.31348000         
O                     2.01843800          -0.68914200          -0.47265900         
H                     1.79607200          -1.54780900          -0.84549000         
H                    -0.49089300          -1.52495100          -0.78891400         
H                     1.81604400           1.06259000           1.49777400         
H                     1.62827700           1.93598300          -0.01549600         
H                     0.22192500           1.68319200           1.03846300         
H                    -2.75510200           0.92563400          -0.82539600         
H                    -1.12094500           1.58057000          -1.01609600         
H                    -1.67645500           0.20729400          -1.99726600         
O                    -1.54943600          -0.76556900           1.11861200         
H                    -1.74255100           0.03303400           0.10141600         
H                    -1.18065600          -0.38235500           1.91641200         
