16

C                    -1.12394000           1.16594200           0.79271500         
C                     1.68477100           0.76102400          -0.97910200         
C                    -0.87809700          -0.05476600          -0.03361800         
C                     0.31062300          -0.54334600          -0.36097100         
O                    -2.04165100          -0.64539300          -0.50928200         
H                    -1.82844900          -1.45852100          -0.97796500         
H                     0.47843200          -1.44397200          -0.92167800         
H                    -1.98210500           0.99174100           1.43662700         
H                    -0.25152800           1.37390500           1.40277700         
H                    -1.34733600           2.02713700           0.16192600         
H                     1.06491000           1.64542300          -0.92701300         
H                     2.71976400           1.06091300          -0.75984900         
H                     1.68361700           0.35310300          -1.98215200         
O                     1.52168100          -0.72636100           1.11030800         
H                     1.74974200           0.05229500           0.08881800         
H                     1.91256000          -1.60110500           1.15615900         
