16

C                     1.05606100          -0.33240600           1.36133800         
C                    -1.48228800           1.09817200           0.30229100         
C                     0.68700600           0.02066800          -0.07390200         
C                    -0.22442800           1.08678900          -0.33864800         
O                     1.82732100          -0.08286900          -0.87753500         
H                     1.66635900           0.32565800          -1.73494600         
H                    -0.12807500           1.59282300          -1.29452000         
H                     1.58777700           0.49583800           1.82539800         
H                     0.17099200          -0.57226500           1.93939000         
H                     1.71183700          -1.19751400           1.34469000         
H                    -1.77431400          -0.09965900           0.01118600         
H                    -1.49006700           1.00833700           1.38112500         
H                    -2.20612200           1.81269200          -0.06303000         
O                    -1.55131000          -1.44572300          -0.29285400         
H                    -0.17578800          -0.85798300          -0.33488200         
H                    -1.78879000          -1.51853600          -1.21777000         
