13

C                    -0.83277400          -0.42360900           0.50172300         
C                    -2.14026800          -0.74565500          -0.08256800         
C                     1.68860800          -0.47466300          -0.11077100         
C                    -0.19975800           0.87406200           0.23421100         
O                     0.95855700          -1.37944000          -0.44605300         
O                     1.32480900           0.62947700           0.45491200         
O                    -0.46414200           1.69765700          -0.62984300         
H                    -0.48733200          -1.00059500           1.34667800         
H                     2.78117600          -0.52490900          -0.24430200         
H                    -0.56493600           1.13124400           1.33572600         
H                    -2.03216200          -1.70662100          -0.59000700         
H                    -2.91680400          -0.87263600           0.67252700         
H                    -2.42858100           0.01116300          -0.80832300         
