13

C                    -0.90578400          -0.20902200           0.34138200         
C                    -2.37828300          -0.40050300           0.10875200         
C                     1.40634300          -0.30023500          -0.34381100         
C                    -0.26858500           1.08603700           0.03914800         
O                    -0.10646000          -0.32810500          -0.85479500         
O                     1.73260900          -1.10927000           0.44651900         
O                     0.93769200           1.32623000           0.34098700         
H                    -0.48591500          -0.79629900           1.15830400         
H                     1.94776000           0.14440100          -1.17493500         
H                    -0.86923000           1.83415500          -0.48437900         
H                    -2.58909400          -1.44737400          -0.09544900         
H                    -2.92319900          -0.09818400           0.99920400         
H                    -2.71318500           0.19479500          -0.73725600         
