13

C                     0.62279800           0.91538100          -0.38868500         
C                     1.88837800           0.71631900           0.34496600         
C                    -0.18797200          -1.52980700           0.10300500         
C                    -0.72992200           0.73051500           0.15248000         
O                    -0.72269700          -0.63457400           0.87435900         
O                     0.50737800          -1.31536900          -0.86011000         
O                    -1.79785400           1.01513800          -0.38497600         
H                     0.67158800           1.55335200          -1.26536500         
H                    -0.42215100          -2.54990700           0.44827400         
H                    -0.39370600           1.48033200           0.98867000         
H                     2.36063300           1.67413300           0.57305500         
H                     1.75485200           0.14669000           1.26221800         
H                     2.57447100           0.17939300          -0.31164200         
