13

C                     1.14724800           0.71312600           0.45182100         
C                     1.25182200           1.22347900          -0.92609900         
C                    -1.55883700          -0.03759700          -0.06374200         
C                     1.20921800          -0.67977400           0.73128600         
O                    -1.31445700           0.60839500           0.85642100         
O                    -1.81383500          -0.65990700          -0.98265900         
O                     1.20680600          -1.56243400          -0.11850600         
H                     1.15253100           1.41356700           1.27225300         
H                    -3.22849300           1.03323000           1.55484700         
H                     1.24670600          -0.93904200           1.80483100         
H                     0.56379600           2.05074400          -1.10139400         
H                     2.25942600           1.61805500          -1.09215000         
H                     1.08121700           0.41960800          -1.64003300         
