13

C                    -1.04664200           0.10356000          -0.41649400         
C                    -2.20366300          -0.49373600           0.35676700         
C                     0.99552600          -0.51974800           0.11383100         
C                    -0.18187500           1.15609600           0.33091600         
O                    -0.00205200          -0.85109600          -0.64194300         
O                     2.09194000          -0.84033100           0.33917300         
O                     0.89757700           1.42591600          -0.28015400         
H                    -1.36461000           0.49364200          -1.38789100         
H                     0.26123600           0.13510700           1.20184000         
H                    -0.70517400           1.93168700           0.90309900         
H                    -1.86184900          -0.89742600           1.30784400         
H                    -2.94541300           0.27757600           0.54550200         
H                    -2.66398000          -1.29353600          -0.21712400         
