13

C                     0.88091400          -0.27074700          -0.40615200         
C                     2.03218500          -0.89750500           0.34774900         
C                    -1.21349700          -0.33268100           0.00641400         
C                     0.17177900           0.91716300           0.31202700         
O                    -0.28286000          -1.13110600          -0.44856100         
O                    -2.35952000          -0.47772400           0.25855100         
O                     0.29257800           2.16876800          -0.18490100         
H                     1.16656000          -0.00279600          -1.42746300         
H                    -0.82151900           1.32684400          -0.13639600         
H                     0.27710900           0.83860800           1.40952200         
H                     2.40242500          -1.76854100          -0.18617800         
H                     2.83130800          -0.16707900           0.43783600         
H                     1.71424200          -1.20393000           1.34174100         
