13

C                    -1.24626700           0.56959300          -0.68415800         
C                    -1.12435300           1.52149000           0.34892200         
C                     2.00774700          -0.34756900          -0.21331100         
C                    -1.61046800          -0.81474500          -0.37530700         
O                     0.88455900           0.24548700          -0.10770700         
O                     3.04698700          -0.17040100           0.35620900         
O                    -2.02995600          -1.17984400           0.69377400         
H                    -1.06038000           0.82888000          -1.71524100         
H                     1.93049700          -1.16085600          -0.99760600         
H                    -1.46698200          -1.52159100          -1.21126000         
H                     0.02887600           1.29986600           0.58371400         
H                    -1.17444600           2.56748600           0.07356700         
H                    -1.63024100           1.25166300           1.27173600         
