12

C                    -0.37095400          -0.02429500          -0.85937600         
C                     0.36265100           1.11285300          -0.20604600         
C                     1.93055600           0.13871600           0.72169800         
O                    -1.19646100          -0.73681900           0.03094200         
O                    -2.26193400           0.09977800           0.48791700         
O                     2.23164000          -0.70423600          -0.03802900         
H                    -2.99412700          -0.52387200           0.57200900         
H                    -0.95809000           0.31925700          -1.72543400         
H                     0.33579200          -0.79389000          -1.20056400         
H                     1.29701800           0.93366200           1.07882700         
H                    -0.30164500           1.70986400           0.41342100         
H                     0.90157700           1.72155600          -0.92255200         
