12

C                     0.58645000           0.52132400          -0.45367600         
C                    -0.66566800           0.58361100           0.42277800         
C                    -1.68177700          -0.46047000           0.06115600         
O                     1.73256100           0.80636400           0.05181400         
O                     2.22865700          -0.91677900           0.05895800         
O                    -2.84258400          -0.25683400          -0.14464600         
H                     2.99084200          -1.47661000           0.29697600         
H                     0.93920400          -0.74160500          -0.51592700         
H                     0.42227200           0.78860100          -1.50685200         
H                    -1.25771200          -1.48499700           0.00248000         
H                    -0.35964000           0.40984000           1.45816000         
H                    -1.11806600           1.57597900           0.35460700         
