12

C                     0.48472800           1.03156200           0.27784400         
C                    -0.75384400           0.59845200          -0.34966800         
C                    -1.72458900          -0.19322400           0.34913200         
O                     1.18077800          -0.19934400          -0.17709400         
O                     2.80482900          -0.52660900          -0.05201900         
O                    -2.77588800          -0.57724200          -0.11782600         
H                     2.81913400          -1.14510600           0.68348400         
H                     0.97236400           1.90675400          -0.14753500         
H                     0.50699500           1.04387400           1.36641900         
H                    -1.43939400          -0.44728500           1.39039500         
H                     0.43456200          -0.52668000          -0.85153200         
H                    -1.00918100           0.97325700          -1.32957300         
