12

C                     0.36906200           0.31874400          -0.47100900         
C                    -0.74963200           1.09811900          -0.01920000         
C                    -1.46721800          -0.33242000           0.43396500         
O                     1.49091500           0.37687200           0.24239700         
O                     2.39255800          -0.67785600          -0.08367500         
O                    -2.46077000          -0.68714700          -0.22109000         
H                     3.16693500          -0.48225800           0.46351700         
H                    -0.50834900          -1.05469400           0.27745400         
H                     0.40405000          -0.13133600          -1.45287500         
H                    -1.46230800          -0.24852700           1.52654100         
H                    -0.54372500           1.75827900           0.81313300         
H                    -1.35150700           1.55692500          -0.79135900         
