13

C                    -1.15067900           0.98107600           0.37511700         
C                    -0.91637500          -1.22777500          -0.05262800         
C                    -1.66842400          -0.02509600          -0.63160100         
C                     1.20787600           0.12752600          -0.00005500         
O                     0.84175400           1.27996200          -0.19104700         
O                     0.00089000          -0.50925900           0.77078100         
O                     2.12765800          -0.57547700          -0.22628700         
H                    -1.08021800           2.01817600           0.07419400         
H                    -1.51077500           0.86138900           1.39107700         
H                    -0.39081500          -1.86056100          -0.77150800         
H                    -1.53230100          -1.84895200           0.60217100         
H                    -1.32489400           0.22126500          -1.63458300         
H                    -2.75779600          -0.08751400          -0.63391700         
