13

C                    -1.35282300           0.94815500          -0.16953700         
C                     1.00351500           0.54626200           0.55494400         
C                     1.81615900          -0.08910800          -0.49936100         
C                    -1.33910500          -0.42115000          -0.19175900         
O                    -0.45934100          -1.11189200           0.36094900         
H                    -2.13195200          -0.94490500          -0.74730300         
H                    -1.97064300           1.52284200          -0.84054200         
H                    -1.08398500           1.42986700           0.75161700         
H                     0.92246300           1.61778200           0.50194100         
H                     1.04395900           0.12785100           1.54499700         
H                     1.57527100          -1.14676200          -0.58898200         
H                     1.68271400           0.40027700          -1.46059600         
H                     2.87042900          -0.01676500          -0.21444500         
