24

C                    -0.15776200           0.07585600           0.35155400         
C                     0.87420700           0.80291600          -0.55500000         
C                    -1.56849500           0.13502600          -0.24595000         
C                     2.22209000           0.17162700          -0.14416100         
C                    -2.58457500          -0.63630400           0.61167000         
C                     1.91154600          -1.31775600           0.00987300         
O                     0.31679500          -1.24519500           0.51124200         
O                     0.84310400           2.18855400          -0.40057500         
O                    -2.01212100           1.46800000          -0.31029100         
O                     2.70611700           0.78303100           1.02501600         
O                    -3.83823500          -0.67576000          -0.00370300         
O                     1.68256100          -2.03161500          -1.03072800         
H                     0.36481700          -1.87371700          -0.48168600         
H                     1.49455400           2.42208100           0.27968900         
H                    -1.29613200           2.03306500          -0.63215200         
H                     2.29893500           0.37254200           1.79748400         
H                    -4.08152400           0.23287800          -0.22197200         
H                    -0.18047300           0.55638600           1.34084800         
H                     0.66757100           0.57026400          -1.60592200         
H                    -1.54639600          -0.31379400          -1.25474300         
H                     2.97821200           0.31579100          -0.91851000         
H                    -2.26129400          -1.67128600           0.73919300         
H                    -2.64578400          -0.15164500           1.59695300         
H                     2.43967700          -1.77687300           0.86520500         
