24

C                     0.84914400           0.47786200          -0.90776000         
C                     0.57877100          -1.01809400          -0.64016700         
C                     0.80545900           1.34094900           0.38583800         
C                    -0.70928400          -1.33956900           0.16311500         
C                    -0.61413600           1.87250800           0.66773000         
C                    -1.91915600          -0.47396700          -0.18002800         
O                     2.09288700           0.61110100          -1.54431100         
O                     1.70278200          -1.59381500          -0.00775600         
O                     1.32701100           0.67111600           1.51243600         
O                    -0.49771900          -1.31394500           1.56389000         
O                    -1.67555700           1.12968500           0.07838900         
O                    -2.22721200          -0.31468000          -1.41669300         
H                     2.69500100          -0.05126200          -1.17403600         
H                     1.96237800          -0.99521000           0.71696000         
H                     0.62449200           0.08057800           1.85257600         
H                     0.10350600          -2.03995000           1.77817200         
H                    -1.93669700           1.04519000          -1.03172700         
H                     0.11346800           0.85907500          -1.62231200         
H                     0.48986800          -1.51089200          -1.61380500         
H                     1.47954900           2.18910700           0.22072000         
H                    -1.02666100          -2.35139500          -0.12936200         
H                    -0.77823700           1.88751900           1.75086600         
H                    -0.72253100           2.88951600           0.28474400         
H                    -2.72646200          -0.67610900           0.54719000         
