24

C                     0.75088300           0.65728900           0.29692500         
C                    -0.68153300           0.64080200           0.80192700         
C                     1.30242900          -0.79664000           0.29809100         
C                    -1.69856200           0.00691200          -0.03547500         
C                     2.47728600          -0.92849000          -0.68614900         
C                    -2.79918300          -0.73506200           0.43162600         
O                     0.80898800           1.29869300          -0.95478500         
O                    -1.19368600           2.17955700           0.66333100         
O                     1.69746900          -1.13764100           1.59981500         
O                    -1.34077900          -0.23788500          -1.40123400         
O                     3.47729400           0.02400000          -0.41980200         
O                    -3.52099900          -1.39233700          -0.31880800         
H                     0.20859100           0.80206700          -1.54188300         
H                    -0.58813900           2.61721100           0.02841600         
H                     2.60128400          -0.81515600           1.72373200         
H                    -2.00683700          -0.88825200          -1.68226800         
H                     3.15675100           0.88313700          -0.72075200         
H                     1.37186200           1.25575400           0.97584100         
H                    -0.77445100           0.44377900           1.86494600         
H                     0.50779100          -1.49271600           0.01463100         
H                    -2.04670200           1.64766400           0.09859300         
H                     2.93792400          -1.90898500          -0.54457700         
H                     2.11533000          -0.85344300          -1.71723400         
H                    -3.01763000          -0.63501700           1.51073300         
