24

C                    -0.59014500           0.73243500           0.24515700         
C                     0.65531600          -0.06330400          -0.19353800         
C                    -1.80213300           0.32223100          -0.63578100         
C                     1.94882800           0.74848700          -0.48152900         
C                    -2.50234100          -0.93691300          -0.07165800         
C                     2.58403800          -0.31056500           0.40121700         
O                    -0.86174700           0.63089500           1.61592800         
O                     0.55268500          -1.14602600          -0.89726100         
O                    -2.70113800           1.38974800          -0.74893200         
O                     2.00503800           2.05298800          -0.01711900         
O                    -1.61994000          -1.81294600           0.58485500         
O                     2.78042900          -1.47949000          -0.11346300         
H                    -1.15472400          -0.28329500           1.78251800         
H                     1.85520800          -1.63907900          -0.69612000         
H                    -2.99101800           1.64588100           0.13631700         
H                     1.68623900           2.09666200           0.89385100         
H                    -0.88074100          -1.99204000          -0.02835300         
H                    -0.39079600           1.79458900           0.05097300         
H                     1.18508500          -0.41163700           0.97200900         
H                    -1.43870700           0.13256100          -1.64951800         
H                     2.26835500           0.73592600          -1.52205700         
H                    -3.24461800          -0.63085900           0.67413500         
H                    -3.03071900          -1.44627700          -0.88634100         
H                     3.13245000          -0.03801300           1.29731200         
