24

C                     0.29499600          -0.80659100          -0.54656000         
C                    -1.18258500          -0.44296100          -0.85453200         
C                     1.05869300           0.47034600          -0.14729700         
C                    -1.79970600           0.29665600           0.35666900         
C                     2.33133200           0.20948400           0.68313800         
C                    -0.94337000           1.52381600           0.68681200         
O                     0.32586100          -1.77295900           0.48431200         
O                    -1.92324600          -1.56907900          -1.20586400         
O                     1.12561300           1.41144100          -1.04289700         
O                    -1.94721200          -0.54888200           1.46598700         
O                     3.06087500          -0.86203400           0.13313600         
O                    -0.78169300           2.44323000          -0.20559200         
H                     1.23530800          -2.08694700           0.57505300         
H                    -2.02901900          -2.11658400          -0.41522100         
H                     0.17572100           2.12215100          -0.84481200         
H                    -1.15362900          -1.10468900           1.53519700         
H                     3.40532500          -0.59454900          -0.72698400         
H                     0.73319900          -1.21269000          -1.46807900         
H                    -1.19431000           0.22224400          -1.72349000         
H                     0.22561300           0.91660700           0.73680900         
H                    -2.80642000           0.63688900           0.08801500         
H                     2.92042300           1.13269900           0.70687100         
H                     2.08719300          -0.08874500           1.70529400         
H                    -1.03713700           1.85537200           1.72930900         
