24

C                     0.23508200           0.16315600           1.10872600         
C                    -0.62909100           1.30615200           0.52159300         
C                     0.65098000          -0.93903600           0.07804900         
C                    -1.80499300           0.90393400          -0.33717000         
C                     2.12839600          -1.05012000          -0.23666800         
C                    -2.58908300          -0.25169700          -0.14546300         
O                     1.36545200           0.72946100           1.70519500         
O                     0.22322000           2.20130300          -0.15451800         
O                     0.05363400          -2.12586400           0.25912300         
O                    -0.59471600           0.12648800          -1.76113300         
O                     2.50086700           0.07054800          -1.01580700         
O                    -2.31028300          -1.23567400           0.56321600         
H                     1.59575300           1.50782400           1.16814400         
H                     0.47624100           1.76690900          -0.98440500         
H                    -0.92802700          -1.95183700           0.44082400         
H                    -0.53463000           0.18205700          -2.73243600         
H                     3.46045800           0.11381700          -1.06930400         
H                    -0.32428700          -0.35329000           1.89873200         
H                    -1.02425700           1.88770300           1.37051600         
H                     0.21573200          -0.46990400          -1.12905800         
H                    -2.25699100           1.73094500          -0.86409100         
H                     2.69126600          -1.07653800           0.70594900         
H                     2.29878300          -1.98870900          -0.78042300         
H                    -3.52318300          -0.27341400          -0.72746000         
