24

C                     0.11855400           0.01885300          -0.38355700         
C                    -0.62335100           0.86039700           0.67256400         
C                     1.89204300           0.64602600          -0.25789100         
C                    -2.04758200           0.27231100           0.61305500         
C                     2.70226400          -0.01415600           0.85158600         
C                    -2.00072300          -1.25887000           0.34993400         
O                    -0.16888700          -1.29971500          -0.13901400         
O                    -0.59386200           2.22613600           0.40962200         
O                     2.50029000           0.62415600          -1.48414900         
O                    -2.73082400           0.86381100          -0.45253200         
O                     2.89642900          -1.34491800           0.41049700         
O                    -2.64514000          -1.65974100          -0.60813700         
H                     1.10619200          -0.62891300          -0.27747000         
H                    -1.35547900           2.40426800          -0.16829000         
H                     2.96303600          -0.21851300          -1.60667800         
H                    -2.99401900           0.09082700          -1.01025800         
H                     3.23032100          -1.90134900           1.11984500         
H                    -0.11820900           0.35673100          -1.40545000         
H                    -0.18407400           0.68544800           1.66045600         
H                     1.59785500           1.67293900          -0.03433200         
H                    -2.57637100           0.46532300           1.55610100         
H                     3.66624500           0.50162700           0.97048800         
H                     2.15637000           0.02806700           1.79999300         
H                    -1.80313800          -1.88164900           1.23115300         
