24

C                    -0.00356900          -0.86253500          -0.87177800         
C                     0.79774000          -1.04183200           0.44501300         
C                    -1.62459700          -0.59155000          -0.52134300         
C                     1.49026700           0.28308200           0.83986000         
C                    -1.91273200           0.17028900           0.69127700         
C                     0.46918800           1.45113500           0.90500400         
O                     0.38157100           0.10571400          -1.68020800         
O                     1.76964700          -2.04169400           0.28697600         
O                    -2.12397900           0.07876000          -1.62329100         
O                     2.52236700           0.55973300          -0.06097900         
O                    -2.16830700          -0.49251600           1.82024800         
O                     0.34211200           2.19528300          -0.21603500         
H                     0.38669300           1.52954000          -0.99552700         
H                     2.52028100          -1.64481700          -0.18079900         
H                    -1.32621900           0.31554900          -2.16315900         
H                     2.12089500           0.56215600          -0.95332200         
H                    -2.54477000           0.06713700           2.51360400         
H                    -0.02397500          -1.84643200          -1.37543000         
H                     0.14120800          -1.39273900           1.24749500         
H                    -2.02620000          -1.60383400          -0.41535900         
H                     1.96554000           0.15954400           1.81954300         
H                    -0.55514800           0.91309500           1.07965200         
H                    -2.39354300           1.13360600           0.52411500         
H                     0.65015900           2.11343000           1.75729300         
