24

C                     0.52236200           0.69603100           0.61809400         
C                    -1.14755500           0.53218600           0.90207200         
C                     1.08638200          -0.69722800           0.27575300         
C                    -1.91037100           0.21110700          -0.27772500         
C                     2.61763100          -0.49801600           0.14934200         
C                    -2.14661100          -1.17829900          -0.65011000         
O                     0.70121600           1.62602400          -0.28699000         
O                    -1.51329900           1.69840400           1.54911300         
O                     0.79637100          -1.63457100           1.26699000         
O                    -0.88527400           0.77805100          -1.94278500         
O                     2.93674800           0.30823200          -0.93964500         
O                    -1.47397500          -2.12437400          -0.29563400         
H                    -0.12870300           1.25122700          -1.32453100         
H                    -1.39377500           2.45095000           0.95451600         
H                     0.05313300          -2.17908100           0.96002800         
H                    -0.45206500           0.01823500          -2.34347100         
H                     2.39931300           1.12170400          -0.87303400         
H                     0.87458900           0.98888300           1.62185700         
H                    -1.11183300          -0.28337100           1.62973100         
H                     0.72250700          -1.02508700          -0.70608500         
H                    -2.64593700           0.93432300          -0.60247600         
H                     3.00245400          -0.08687000           1.09303700         
H                     3.07769600          -1.47431700          -0.02103900         
H                    -3.02269100          -1.32539200          -1.30148200         
