24

C                    -0.81563500           0.65124700          -0.63094700         
C                     0.51415500           1.41645000          -0.47523100         
C                    -0.90382800          -0.45976000           0.43852600         
C                     1.73269400           0.46857200          -0.46928400         
C                    -2.02562800          -1.45634900           0.10325200         
C                     1.43309100          -1.03009100          -0.73549800         
O                    -1.90339000           1.52803600          -0.51777000         
O                     0.44870300           2.15179000           0.72480200         
O                     0.33403600          -1.14851500           0.57700900         
O                     2.25880000           0.31955200           0.81744300         
O                    -3.28484900          -0.87150100           0.25390600         
O                     2.42501900          -1.71739400          -0.32963500         
H                    -1.67824000           2.17863200           0.16404400         
H                     1.21432400           1.88111300           1.26136900         
H                     2.74938000          -0.81342100           0.51635000         
H                     1.07816000          -0.52080000           1.11588800         
H                    -3.29204000          -0.02668100          -0.22093500         
H                    -0.87542800           0.21217100          -1.63311900         
H                     0.59588500           2.12507800          -1.31122200         
H                    -1.14381600           0.00887100           1.40277500         
H                     2.50453100           0.82001000          -1.16509800         
H                    -1.87935000          -1.83924100          -0.91845900         
H                    -1.98078200          -2.29881400           0.79807900         
H                     0.87173200          -1.36307800          -1.60062100         
