24

C                    -0.86266200           0.97044400           0.18320000         
C                     0.16489600           0.93763400          -1.01133900         
C                    -1.04163800          -0.49003100           0.67639600         
C                     1.34430800           0.11069600          -0.71116300         
C                    -2.05853800          -1.23515700          -0.21376000         
C                     1.35280100          -1.36074700          -0.76681700         
O                    -0.40537100           1.86626000           1.13553500         
O                     0.51492700           2.24269900          -1.36256900         
O                     0.14274800          -1.13756600           0.80074700         
O                     1.99723900           0.42413200           1.40432300         
O                    -3.30114400          -0.58464100          -0.27516000         
O                     2.29931300          -2.03019100          -0.41558900         
H                     0.44375700           1.55127000           1.49381900         
H                     0.41653300           2.80443000          -0.57729700         
H                     1.32907500          -0.31757400           1.47176200         
H                     2.85577800          -0.00966500           1.36619100         
H                    -3.72434900          -0.62085200           0.59003100         
H                    -1.82318900           1.36010200          -0.16989700         
H                    -0.37115900           0.49010400          -1.85982800         
H                    -1.48100600          -0.39717000           1.68972400         
H                     2.29652900           0.62390400          -0.78993800         
H                    -1.69311800          -1.27589100          -1.24325900         
H                    -2.15269200          -2.26369200           0.15555800         
H                     0.52713800          -1.78754100          -1.36426700         
