24

C                     0.17753200          -1.48970300          -0.33450000         
C                    -1.08388400          -0.62380500          -0.61580500         
C                     1.15594700          -0.78905100           0.57936400         
C                    -0.77131700           0.87985900          -0.69875300         
C                     2.13959500           0.09345300          -0.00139000         
C                    -0.31014600           1.50397800           0.65435200         
O                    -0.19551900          -2.73565900           0.17717600         
O                    -2.07957400          -0.90607100           0.33921900         
O                    -0.02975100           0.25465900           1.62160300         
O                    -1.90440000           1.56093900          -1.16886600         
O                     2.22646700           0.12618900          -1.40495100         
O                     0.76290500           2.21583100           0.66981300         
H                    -1.10485800          -2.64853200           0.51094000         
H                    -1.77519900          -0.56824100           1.19432900         
H                     0.53179000           0.64533000           2.30800800         
H                    -2.67160700           1.26974000          -0.65764200         
H                     2.69581100          -0.65515400          -1.72308200         
H                     0.69011900          -1.65762800          -1.29223000         
H                    -1.52049900          -0.93488000          -1.57145700         
H                     1.42333600          -1.36317800           1.46002300         
H                     0.01266600           1.05499200          -1.44081400         
H                     1.70113800           1.23112100           0.22589500         
H                     3.11632200           0.06033600           0.48558600         
H                    -1.18640700           1.99061200           1.12889000         
