24

C                    -0.30408000           0.34297800           0.07369800         
C                     0.80575100          -0.68513500           0.38484600         
C                    -1.66686600          -0.27814800           0.39567600         
C                     2.22511000          -0.06197900           0.48563800         
C                    -2.82940100           0.68536600          -0.00917400         
C                     2.49200600           0.83816400          -0.69946100         
O                    -0.20499700           1.52711300           0.82089900         
O                     0.86874200          -1.65830400          -0.62723600         
O                    -1.88244900          -1.45168100          -0.32610300         
O                     3.18326600          -1.07111500           0.59529200         
O                    -3.93041900           0.01015600          -0.32858600         
O                     1.97897800           1.91516300          -0.86001600         
H                     0.52827600           2.04623300           0.44576900         
H                    -0.03394900          -1.98495400          -0.76847600         
H                    -2.84257700          -1.40238200          -0.56998700         
H                     2.91660400          -1.78579300          -0.00125800         
H                    -3.76218800           1.08025100           0.68376100         
H                    -0.26585600           0.55161400          -1.00695500         
H                     0.59541200          -1.16122100           1.35647600         
H                    -1.71392100          -0.48715400           1.47602100         
H                     2.27676000           0.54191800           1.39998200         
H                    -2.86454100           1.52256000           1.17150500         
H                    -2.49023700           1.43449000          -0.74635400         
H                     3.21611800           0.42630100          -1.42183300         
