24

C                    -0.07365800          -1.30844000          -0.16601100         
C                    -1.27946600          -0.58441200          -0.81449900         
C                     1.07464500          -0.31535500           0.12414600         
C                    -1.53696900           0.75409600          -0.09289000         
C                     2.45222000          -0.91156900          -0.18826400         
C                    -0.41752300           1.76602200          -0.31893300         
O                    -0.48720500          -1.97139800           0.99611900         
O                    -2.40617200          -1.40393000          -0.80123900         
O                     0.95219300           0.89965300          -0.60434400         
O                    -1.63490400           0.52937000           1.29952800         
O                     3.49119800          -0.09264400           0.26336900         
O                    -0.25280600           2.75510600           0.33261200         
H                    -0.85297700          -1.30473900           1.60098200         
H                    -2.39327200          -1.90597400           0.02925000         
H                     0.46296800           1.22434400          -1.77939300         
H                    -1.58794000           1.38747000           1.74301000         
H                     3.32221700           0.80803800          -0.04142200         
H                     0.26846100          -2.09769500          -0.84444100         
H                    -1.07219000          -0.36760100          -1.86930000         
H                     1.04496500          -0.04587700           1.18959200         
H                    -2.47730000           1.18478600          -0.47005600         
H                     2.55649600          -1.86753900           0.32814100         
H                     2.52493000          -1.07835500          -1.27433100         
H                    -0.41027700           1.93183100          -1.76167700         
