24

C                    -1.13722500           0.72683600           0.67915000         
C                    -1.84559300          -0.21608700          -0.29249700         
C                     0.43848900           0.75005400           0.46233100         
C                    -0.91747900          -1.41499500          -0.34127700         
C                     1.93810000           1.25545500          -0.75949100         
C                     0.46189200          -0.83218300          -0.63212100         
O                    -1.71158700           2.00127100           0.54979300         
O                    -1.95525900           0.33958000          -1.57391500         
O                     1.11545000           0.29886300           1.58132900         
O                    -0.94706700          -2.11558300           0.86678700         
O                     2.89576100           0.42970800          -0.46357800         
O                     1.46503400          -1.49401400          -0.18102600         
H                    -1.52450800           2.52488200           1.33569400         
H                    -2.29605900           1.23671900          -1.45989200         
H                     1.44152000          -0.61078200           1.39088300         
H                    -0.06353500          -2.50327600           0.97527000         
H                     2.52424200          -0.55939900          -0.41705000         
H                    -1.26067000           0.32820200           1.69366500         
H                    -2.83246200          -0.48952100           0.10646900         
H                     0.54509200           1.84509400           0.48692200         
H                    -1.18178400          -2.07062000          -1.18640000         
H                     1.45837300           1.21138400          -1.73694900         
H                     2.17573500           2.27464500          -0.45160600         
H                     0.48628800          -0.48040000          -1.66871200         
