24

C                    -0.58088200          -0.71235300           0.30918600         
C                     0.59604800           0.17557400           0.54176800         
C                    -1.78150700           0.20475900          -0.09420200         
C                     1.38249900           0.69429700          -0.52017500         
C                    -3.11889500          -0.53102500           0.09608300         
C                     2.62761300          -0.52277900          -0.31440200         
O                    -0.28616500          -1.62567900          -0.71826000         
O                     2.05090500          -1.03390900           1.04337600         
O                    -1.87462800           1.37204700           0.68302500         
O                     1.99026200           1.91364200          -0.31375900         
O                    -4.17474800           0.19262400          -0.46231700         
O                     3.73300300          -0.00876500          -0.24932600         
H                    -1.09326600          -2.07308500          -0.99608300         
H                     2.05726800          -1.99959000           1.07766100         
H                    -1.14856900           1.97062900           0.47130700         
H                     2.95128600           1.73288400          -0.21707100         
H                    -4.16262800           1.07554200          -0.07126500         
H                    -0.83726100          -1.24205600           1.23982800         
H                     0.64608900           0.67466500           1.50123800         
H                    -1.65535900           0.45718100          -1.15824900         
H                     1.01014200           0.55374700          -1.53506800         
H                    -3.11323700          -1.49963200          -0.40957900         
H                    -3.27175200          -0.68676100           1.17341100         
H                     2.35900100          -1.29404200          -1.04757700         
