24

C                    -0.28140900          -0.04640800           0.13734200         
C                     0.77778900           0.84544100          -0.56419000         
C                    -1.57853900          -0.14270100          -0.67645100         
C                     2.10918800           0.36793100           0.05338000         
C                    -2.63351500          -0.96914400           0.08150100         
C                     1.97053700          -1.15512800           0.10795800         
O                     0.33243000          -1.30722400           0.32801600         
O                     0.54150800           2.20894500          -0.38304800         
O                    -2.12950800           1.13620400          -0.86912300         
O                     2.30551200           0.97429900           1.30570500         
O                    -3.00507200          -0.32926300           1.26952900         
O                     2.02038800          -1.83569600          -0.98054000         
H                     0.61550100          -1.87139800          -0.65666200         
H                     1.03263500           2.48788900           0.40607500         
H                    -1.42289900           1.77630800          -1.03445700         
H                     1.81865600           0.48632100           1.98124700         
H                    -3.28771600           0.56352000           1.02807200         
H                    -0.52982700           0.36746300           1.12553500         
H                     0.77873800           0.63759100          -1.64066100         
H                    -1.35583500          -0.62617100          -1.64334400         
H                     2.95959600           0.64287800          -0.57348700         
H                    -3.50091000          -1.11209200          -0.57577500         
H                    -2.22305400          -1.94225400           0.35641600         
H                     2.40874900          -1.58811400           1.02549800         
