24

C                    -0.37154600          -0.00379100           0.48609500         
C                     0.55414700           0.95895600          -0.27265400         
C                    -1.83045600           0.53827000           0.52965500         
C                     1.80990100           0.54966500          -0.80055100         
C                    -2.54670400           0.30189800          -0.81375300         
C                     2.68531900          -0.69637500          -0.33337000         
O                    -0.34484700          -1.27005100          -0.07750800         
O                     0.25923300           2.26118300          -0.08939300         
O                    -2.53879500          -0.07526200           1.56451200         
O                     3.29503000           0.24537700           0.62420500         
O                    -2.87463100          -1.04844300          -0.97883900         
O                     2.11452800          -1.70239700           0.16223900         
H                     0.59759500          -1.64606500           0.04315300         
H                     1.00477000           2.84103200          -0.30870100         
H                    -2.86402900          -0.92296800           1.22229900         
H                     2.98175700          -0.02769100           1.49763500         
H                    -2.05239000          -1.55833200          -0.87707600         
H                    -0.00810100          -0.01856200           1.52926500         
H                     0.56426200           0.55541800          -1.48944300         
H                    -1.79299300           1.60697000           0.75946700         
H                     2.43366900           1.33175600          -1.22284300         
H                    -3.49183700           0.85011500          -0.81893300         
H                    -1.92233600           0.67106300          -1.64237100         
H                     3.46152500          -0.85772400          -1.10671500         
