24

C                    -0.57126800           0.62757400          -0.25218300         
C                     0.90619700           0.95456300          -0.12403800         
C                    -1.10367300          -0.61425400           0.21513500         
C                     1.84090800          -0.19175300          -0.60709800         
C                    -2.50206700          -0.70025800           0.76954100         
C                     2.30330600          -1.09418100           0.51266300         
O                    -1.38144900           1.78510700          -0.11536400         
O                     1.22172700           1.39953600           1.18761400         
O                    -1.28662900          -1.22635200          -1.54768300         
O                     2.93658000           0.28866200          -1.34532100         
O                    -3.46143700          -0.00970500           0.02327500         
O                     1.65672500          -1.38913100           1.48237700         
H                    -1.05807100           2.29644900           0.63802100         
H                     1.06343400           0.66883100           1.80133000         
H                    -2.14058200          -1.49787600          -1.91042600         
H                     3.40677000           0.94466100          -0.81605200         
H                    -3.09495800           0.87000200          -0.16713200         
H                    -0.90580500          -0.03335700          -1.55841700         
H                     1.11293500           1.82458000          -0.76101000         
H                    -0.43182700          -1.40004400           0.52751500         
H                     1.27529300          -0.82824700          -1.30269400         
H                    -2.83225900          -1.74068400           0.82181000         
H                    -2.45045900          -0.30828900           1.80313200         
H                     3.33097600          -1.47112100           0.36061900         
