24

C                     0.29843900          -0.22498100          -0.37565600         
C                    -0.27558100           0.64927700           0.77123200         
C                     1.65769500          -0.84033000          -0.01857300         
C                    -1.79835200           0.56039200           0.56549200         
C                     2.75299400           0.23901600          -0.00344100         
C                    -2.09068200          -0.79285900          -0.06233700         
O                    -0.62088600          -1.26130800          -0.61000400         
O                     0.19114500           1.95711000           0.77084100         
O                     1.51650500          -1.48752300           1.22726000         
O                    -2.18435800           1.56528000          -0.34331700         
O                     2.99945100           0.75749100          -1.28172700         
O                    -3.02322500          -1.07164800          -0.75351600         
H                    -0.93125400          -1.94949100           0.51850700         
H                    -0.30342000           2.44429500           0.09530400         
H                     2.37481300          -1.82299200           1.50757600         
H                    -2.93454600           1.23579300          -0.85652500         
H                     3.29453900           0.04938500          -1.86665300         
H                     0.40902100           0.38321000          -1.28375100         
H                     0.00629100           0.20440700           1.73066500         
H                     1.89677100          -1.58607800          -0.79818800         
H                    -2.34687500           0.67480600           1.51047000         
H                     2.42956900           1.08313200           0.60852100         
H                     3.67010800          -0.18889900           0.43260200         
H                    -1.86115900          -1.74588000           1.06487200         
