24

C                     0.55907000           0.27620800           0.34106500         
C                    -0.84986400          -0.30197700           0.17404300         
C                     1.62434300          -0.72533800          -0.15349700         
C                    -2.02996300           0.59878900           0.62572500         
C                     3.03813100          -0.18789200           0.10580800         
C                    -2.57358100           0.22167200          -0.74150100         
O                     0.61778400           1.49922800          -0.35550200         
O                    -1.08056100          -1.56880300           0.31398200         
O                     1.54519200          -1.95015500           0.51028200         
O                    -1.79070400           1.94120500           0.85608600         
O                     3.25880500           0.98860800          -0.65111400         
O                    -3.06813600          -0.96527600          -0.87976800         
H                     1.55240400           1.68285000          -0.55202400         
H                    -2.36802900          -1.58579400          -0.30768800         
H                     0.60420300          -2.21734000           0.51364600         
H                    -1.01301600           2.21721300           0.34372600         
H                     4.17706600           1.25833100          -0.54871700         
H                     0.69998000           0.44015500           1.42420300         
H                    -1.09080800           0.00912100          -1.07239700         
H                     1.48946700          -0.84916200          -1.24297200         
H                    -2.60179900           0.18402700           1.45661100         
H                     3.14769200           0.01202800           1.17964000         
H                     3.74308700          -0.97755200          -0.17393100         
H                    -2.80810500           0.97889700          -1.48168200         
