24

C                     0.53288800          -0.75754700          -0.57751000         
C                    -0.97437900          -1.07243800          -0.43586100         
C                     1.01180600           0.07387500           0.64428900         
C                    -1.87509400           0.20104900          -0.56617500         
C                     2.23140500           0.93686100           0.29984300         
C                    -1.00180700           1.40855400          -0.23546500         
O                     1.28160400          -1.93514500          -0.71657500         
O                    -1.23992100          -1.72893600           0.78134000         
O                    -0.12479400           0.80648600           1.07844800         
O                    -2.99721900           0.10638000           0.25580600         
O                     3.36636100           0.13565200           0.11002900         
O                    -0.34937200           2.02192600          -1.03695700         
H                     0.97470400          -2.57605600          -0.06125500         
H                    -0.96745200          -1.13774400           1.49895400         
H                    -0.71132600           1.94917900           1.42405200         
H                    -2.94295400          -0.73923100           0.73286000         
H                     3.16016600          -0.54129400          -0.54826600         
H                     0.68598000          -0.18331900          -1.49671300         
H                    -1.25160400          -1.79107800          -1.21377800         
H                     1.30325100          -0.60913000           1.45764200         
H                    -2.19482000           0.32795700          -1.61015000         
H                     2.01050200           1.54962100          -0.58358900         
H                     2.45777300           1.59897200           1.14034700         
H                    -1.56640400           2.15909200           0.70842800         
