24

C                     0.53645700          -0.42090300          -0.45712800         
C                    -0.90798000          -0.40883800           0.02615800         
C                     1.40584600           0.26035300           0.64839600         
C                    -1.65130800           0.92621300           0.22406600         
C                     2.84030100          -0.28947600           0.60920000         
C                    -2.75572900           0.18979500          -0.51332300         
O                     0.92756500          -1.73849000          -0.71391900         
O                    -1.25661600          -1.35437500           0.84322000         
O                     1.42256100           1.65468800           0.44614900         
O                    -1.16902300           2.01009400          -0.49754700         
O                     3.40806900          -0.09887500          -0.66151600         
O                    -3.42714700          -0.68783600           0.14632100         
H                     0.44942300          -2.30023200          -0.08193900         
H                    -2.58702500          -1.22056100           0.72550500         
H                     2.13136900           1.83630800          -0.18965100         
H                    -0.29267700           2.24266800          -0.13964500         
H                     3.01154500          -0.74442300          -1.26029600         
H                     0.64918300           0.15012200          -1.38595400         
H                    -1.62537400          -0.58075100          -1.09427300         
H                     0.96349000           0.07964500           1.63281900         
H                    -1.88031500           1.15302600           1.27054000         
H                     3.45090400           0.28237300           1.31259100         
H                     2.84853400          -1.34364700           0.90309700         
H                    -3.16784300           0.62097100          -1.41868600         
