24

C                     0.69350500           0.85090400           0.73156900         
C                    -0.74373700           0.49558200           0.32200900         
C                     1.87895500           0.09361000           0.10555800         
C                    -1.21869400           0.06042800          -1.07875400         
C                     1.72258800          -1.43439400           0.16265300         
C                    -1.97366200          -0.97414400          -0.24162900         
O                     0.88617100           2.20685500           0.38655500         
O                    -1.63344800           1.21087100           0.94650100         
O                     2.06583900           0.48745700          -1.23439300         
O                    -0.34749300          -0.53811100          -1.97686100         
O                     1.24964400          -1.87682900           1.41023800         
O                    -3.04603000          -0.58894200           0.36075900         
H                     0.11050600           2.69699700           0.69145000         
H                    -2.69384900           0.42760200           0.77299100         
H                     2.03174300           1.45650200          -1.23957900         
H                     0.50952400          -0.06930800          -1.99560000         
H                     1.93610300          -1.75735500           2.07627300         
H                     0.73180300           0.73391700           1.82555500         
H                    -0.91575200          -0.78037200           0.71260500         
H                     2.76475600           0.39246600           0.69119800         
H                    -1.86638500           0.80991900          -1.54946900         
H                     0.98645400          -1.75294600          -0.57809200         
H                     2.68401700          -1.89470900          -0.09264800         
H                    -1.83012800          -2.02504700          -0.46551600         
