24

C                    -0.38751800           0.96750600          -0.48898300         
C                     0.48575300          -0.21576600           0.17356800         
C                    -1.83706700           0.81748300          -0.22881800         
C                     1.86501200          -0.19202100          -0.55602800         
C                    -2.64107200          -1.17392200           0.53286100         
C                     2.73604700          -1.22402500           0.10173100         
O                     0.04067600           2.18525800           0.07178200         
O                    -0.10595000          -1.39520500           0.09406200         
O                    -2.36864400           1.63754200           0.67163100         
O                     2.47301700           1.07238300          -0.48640800         
O                    -3.30478800          -1.60377100          -0.61352000         
O                     3.76363100          -0.92029000           0.64983800         
H                     1.00678000           2.21359700          -0.03208200         
H                    -1.42080100          -1.07101200           0.26942800         
H                    -1.64222500           2.15012800           1.07652000         
H                     3.29378000           0.94442300           0.02482000         
H                    -2.81355000          -2.33716500          -1.00113700         
H                    -0.19955000           0.92383700          -1.56872200         
H                     0.66056300           0.12056400           1.22230900         
H                    -2.50088700           0.53992500          -1.03594800         
H                     1.69809600          -0.47785100          -1.60331000         
H                    -2.46587200          -2.00233100           1.23704500         
H                    -3.26654600          -0.44013900           1.03287900         
H                     2.33975200          -2.24685100           0.07311900         
