24

C                     0.31898700           0.00371500           0.65275800         
C                    -0.83989500          -0.97588600           0.35724400         
C                     1.58536200          -0.27963000          -0.16321800         
C                    -1.46114700          -0.38187700          -0.93404400         
C                     2.70684400           0.70241800           0.20369900         
C                    -1.50391000           1.11524900          -0.57269000         
O                    -0.19004300           1.30621300           0.31375000         
O                    -1.77165700          -0.96971600           1.39716400         
O                     1.97615700          -1.59764600           0.10404200         
O                    -2.73156200          -0.86290500          -1.22542000         
O                     3.82548400           0.34706000          -0.57929600         
O                    -2.37832800           1.44087600           0.34517600         
H                    -1.04696200           1.61574400           0.99090300         
H                    -2.27752300          -0.12645200           1.32312200         
H                     2.87146500          -1.70129500          -0.24625000         
H                    -3.33621200          -0.54338400          -0.53780900         
H                     4.54907900           0.95459000          -0.39797700         
H                     0.56682700          -0.01891700           1.71792300         
H                    -0.47445100          -1.99621300           0.23832700         
H                     1.36852400          -0.15538100          -1.23612100         
H                    -0.83507200          -0.58295900          -1.80444600         
H                     2.38025900           1.72813800          -0.00597600         
H                     2.93683000           0.60620900           1.27392100         
H                    -1.38061800           1.80492100          -1.42144000         
