24

C                    -0.61186300          -0.54979000          -0.12408300         
C                     0.70990400          -0.08677200          -0.95341400         
C                    -1.71929500           0.43859100          -0.60424900         
C                     1.54711600          -0.91886000          -0.09163800         
C                    -3.08518900          -0.03780900          -0.07580200         
C                     2.43536100          -0.24673000           0.88543600         
O                    -0.91830200          -1.87774500          -0.40671900         
O                     0.90875900           1.22002300          -0.92289700         
O                    -1.47460700           1.71163100          -0.11169500         
O                     3.41471000          -0.49691300          -0.18721400         
O                    -3.04935000          -0.34607300           1.29324200         
O                     2.22570300           1.03158900           1.17115800         
H                    -1.64842600          -2.14401300           0.16752000         
H                     1.67363000           1.39745600           0.34269100         
H                    -0.55072000           1.92624800          -0.40248400         
H                     3.40523100           0.28036200          -0.77153800         
H                    -2.80913200           0.46294400           1.76229800         
H                    -0.47045300          -0.37146200           0.95222100         
H                     0.55670900          -0.50893400          -1.96244900         
H                    -1.74629700           0.42757000          -1.70585600         
H                     1.52085300          -1.99276900          -0.15650800         
H                    -3.80680300           0.76139100          -0.28330800         
H                    -3.39997300          -0.94321800          -0.59835800         
H                     2.76386900          -0.82743900           1.75127300         
