24

C                     1.09858100           0.69805900           0.73825500         
C                    -0.20560700           1.21474800           0.09377100         
C                     1.52355700          -0.77008100           0.40752100         
C                    -1.36250400           0.25590500           0.13488400         
C                     1.11902800          -1.28101600          -0.99169700         
C                    -2.71963800           0.56737600          -0.00445700         
O                     2.14344200           1.57039900           0.37946500         
O                     0.12384800           1.50870400          -1.27577600         
O                     2.91325900          -0.88063100           0.54277200         
O                    -1.25446600          -0.94640000           0.97521900         
O                    -0.26227200          -1.60347400          -1.09594700         
O                    -3.57364600          -0.24751400           0.39038200         
H                     1.99551900           1.81532700          -0.54670300         
H                    -0.59563300           2.01139400          -1.66789000         
H                     3.27588200           0.02052600           0.48245800         
H                    -2.25350800          -1.10950100           1.06370200         
H                    -0.71865700          -1.66707700           0.04487300         
H                     1.00260000           0.76823200           1.82658100         
H                    -0.44608300           2.16796200           0.59090800         
H                     1.07596000          -1.44181900           1.15283400         
H                    -0.82892100          -0.61619600          -1.06678700         
H                     1.37411300          -0.54949000          -1.76266900         
H                     1.67815900          -2.20150300          -1.17658900         
H                    -3.00126300           1.48353600          -0.53930400         
