24

C                    -0.93461100          -1.14520200          -0.37742300         
C                    -1.55162800           0.12551100          -1.00173700         
C                     0.63242600          -0.88850100           0.03219200         
C                    -0.85122000           1.24601000          -0.24541500         
C                     2.49483100          -0.91586300          -0.57996600         
C                     0.62967100           0.90252600          -0.35873100         
O                    -1.60919400          -1.53582700           0.75677500         
O                    -2.93782900           0.12248900          -0.93550000         
O                     0.78400400          -0.83558800           1.41376100         
O                    -1.27247200           1.26449700           1.09689800         
O                     3.04899500           0.26067300          -0.71640800         
O                     1.38799400           1.43429800           0.54293800         
H                    -1.48311900          -0.84532900           1.43177400         
H                    -3.19392200          -0.04732700          -0.01752300         
H                     1.05072600           0.09380200           1.62658600         
H                    -0.58866100           1.74126900           1.59034400         
H                     2.64901000           0.91513800           0.00816200         
H                    -1.00014600          -1.97913800          -1.08177800         
H                    -1.29034000           0.19240300          -2.06180900         
H                     0.89125400          -1.92587800          -0.22816100         
H                    -1.01680600           2.22621700          -0.71599600         
H                     2.82469500          -1.49205300           0.28875700         
H                     2.47114000          -1.47530400          -1.51496400         
H                     0.95738400           0.96498300          -1.40661700         
