24

C                     0.55726100           0.41766900           0.02816900         
C                    -0.69303900          -0.31417700          -0.48551100         
C                     1.80595400          -0.14936400          -0.33939500         
C                    -1.93228100           0.02697200           0.41031900         
C                     3.05001300           0.66591200          -0.25635000         
C                    -3.13575600          -0.67002700          -0.17353700         
O                     0.49444200           1.79484100           0.15502600         
O                    -0.48148700          -1.69331400          -0.48063500         
O                     1.56440000          -1.22791400           1.35371700         
O                    -2.17324900           1.40618900           0.49544400         
O                     4.23462200          -0.03489500          -0.51062900         
O                    -4.09856000          -0.05094400          -0.53984600         
H                    -0.41532900           2.03229800           0.39977100         
H                     0.16701200          -1.88607000           0.23092700         
H                     1.98315900          -1.80977900           2.01229300         
H                    -3.03736500           1.56301900           0.07192600         
H                     4.14784000          -0.52334000          -1.33683200         
H                     0.70440600          -0.19155900           1.24007700         
H                    -0.92119400          -0.00864100          -1.51657100         
H                     1.83965600          -1.06085200          -0.91668900         
H                    -1.73928700          -0.37558000           1.41656300         
H                     2.92478800           1.50742100          -0.96249300         
H                     3.15533600           1.09922800           0.74065700         
H                    -3.04328300          -1.75975600          -0.26641700         
