24

C                     0.63545400          -0.47462800           0.75567600         
C                    -0.68124500           0.06614300           1.32651700         
C                     1.16759300          -0.15531700          -0.56362600         
C                    -1.80719600          -0.30687100           0.31501300         
C                     1.22384300           1.33554200          -1.03314600         
C                    -1.27359900          -1.64084400          -0.33415500         
O                     1.52772400          -1.00042200           1.62348100         
O                    -0.59562800           1.37857400           1.76925900         
O                     2.43554400          -0.70089700          -0.80335700         
O                    -1.98185400           0.60805600          -0.72601900         
O                     0.16848300           2.16652900          -0.67429800         
O                    -0.91154500          -1.43100100          -1.57351700         
H                     1.15095900          -1.07966200           2.51044400         
H                    -0.38855800           1.95837900           1.00637000         
H                     2.85178300          -0.92953200           0.03724800         
H                    -1.71285000           0.07739500          -1.52773500         
H                    -0.68834300           1.77194000          -0.95504300         
H                    -0.30650600          -1.82364100           0.30784100         
H                    -0.89345000          -0.52457700           2.23234400         
H                     0.42042200          -0.69140500          -1.31197000         
H                    -2.75626300          -0.42502000           0.84586900         
H                     2.12227400           1.76615400          -0.57831400         
H                     1.36636300           1.31339700          -2.12018100         
H                    -1.89673100          -2.52428200          -0.16893600         
