24

C                     1.03244200           0.97869300           0.11574400         
C                    -0.39806100           0.98264800           0.71346600         
C                     1.81520300          -0.31874900           0.41594900         
C                    -1.50985800           0.82222700          -0.32502400         
C                     1.02913100          -1.61387000           0.10818100         
C                    -2.36126100          -0.38493200          -0.39068000         
O                     0.97752100           1.21535300          -1.27106700         
O                    -0.64171000           2.16533000           1.42594500         
O                     2.99677600          -0.22404900          -0.36070200         
O                    -1.39015300          -0.06304900          -1.44687900         
O                     0.12330900          -1.96332400           0.95350600         
O                    -2.21764500          -1.47058900           0.32069500         
H                     1.86570100           1.04253400          -1.61251800         
H                    -0.49940100           2.92406300           0.84548500         
H                     3.55595700          -0.98469700          -0.17289300         
H                    -0.26800600          -0.73981800          -1.42802400         
H                    -1.20960400          -1.70108800           0.65889200         
H                     1.58450600           1.80036800           0.60384500         
H                    -0.47352100           0.18157500           1.45804300         
H                     2.05364500          -0.33640800           1.48891600         
H                    -1.93928200           1.77351700          -0.62836100         
H                     0.52491600          -1.35249400          -1.04271800         
H                     1.74226300          -2.41673400          -0.18039100         
H                    -3.36753500          -0.26428500          -0.78806700         
