24

C                    -0.31544800           0.31208200           0.46224400         
C                     0.48823800           0.93966600          -0.70909000         
C                    -1.83300300           0.51667100           0.34442300         
C                     1.82984000           0.17776400          -0.66664400         
C                    -2.54161300          -0.63741300          -0.39860900         
C                     1.47957100          -1.25911300          -0.22376600         
O                     0.05360500          -1.07311600           0.46251700         
O                     0.65087300           2.30911800          -0.56771700         
O                    -2.32902300           0.62604000           1.66013800         
O                     2.65026100           0.73631500           0.31491400         
O                    -1.98713000          -0.92157200          -1.65432700         
O                     2.11861000          -1.68344200           0.82430200         
H                     0.73540500          -1.43129300           1.30975200         
H                     1.42405600           2.44572800           0.00396400         
H                    -3.27167600           0.82133500           1.63227300         
H                     2.87596800          -0.02744100           0.90227100         
H                    -1.17669100          -1.42695300          -1.52821000         
H                    -0.00340400           0.78817700           1.39885500         
H                    -0.03631500           0.76220700          -1.65361700         
H                    -1.98195700           1.45830400          -0.20444100         
H                     2.33193500           0.19049800          -1.64076400         
H                    -2.53599300          -1.52049600           0.25310300         
H                    -3.58055200          -0.34890500          -0.58375600         
H                     1.31615700          -1.95583500          -1.05938200         
