24

C                    -0.35305600          -0.95830300           0.47420200         
C                     0.54404300           0.30088100          -0.01296000         
C                    -1.78756700          -0.63738500           0.46055600         
C                     1.97326700           0.03409700           0.55145200         
C                    -2.39311900           1.35833600          -0.49735300         
C                     2.86962100           1.12177800           0.03187300         
O                    -0.11673900          -2.04785800          -0.38041300         
O                     0.04027800           1.45501300           0.37124100         
O                    -2.57437600          -1.34225300          -0.35689700         
O                     2.45469900          -1.22560000           0.15710500         
O                    -3.63151000           1.27798200           0.11974700         
O                     3.81230900           0.87315100          -0.67392500         
H                     0.84662800          -2.16940200          -0.40892100         
H                    -1.33512700           1.24626700           0.15354900         
H                    -1.99128100          -1.89131800          -0.91659400         
H                     3.23725000          -1.04757200          -0.39724800         
H                    -3.98714100           0.38415700           0.03136100         
H                    -0.03173700          -1.16451200           1.50289900         
H                     0.60244700           0.18397800          -1.12209300         
H                    -2.26716300          -0.30357700           1.36970200         
H                     1.92468800           0.10101000           1.64642400         
H                    -2.21689700           2.43073800          -0.65212700         
H                    -2.34713800           0.85192300          -1.46282600         
H                     2.56904000           2.13840400           0.31438700         
