24

C                     0.93832000          -0.99164100           0.24346300         
C                    -0.41294900          -1.36854400          -0.42850100         
C                     1.66171800           0.15219500          -0.49888000         
C                    -1.31030200          -0.17879700          -0.51904600         
C                     1.91896500           1.35586800           0.41977100         
C                    -2.18411900           0.39187200           0.50238800         
O                     0.68545200          -0.65834300           1.58220200         
O                    -1.04750200          -2.34628300           0.37542600         
O                     2.86052500          -0.39455500          -0.99573900         
O                    -1.40298500           0.51378600          -1.62492500         
O                     0.68745800           2.00419000           0.63838900         
O                    -2.90321400           1.34552700           0.05545000         
H                     0.02066800          -1.28487900           1.90690700         
H                    -0.61767700          -3.19771700           0.23696400         
H                     3.32828400           0.27741700          -1.50435500         
H                    -2.19759500           1.17887500          -1.30328300         
H                     0.78803800           2.65355900           1.34172200         
H                     1.60629000          -1.86791300           0.19581100         
H                    -0.23217900          -1.73374300          -1.44656600         
H                     1.03225800           0.50424100          -1.32952300         
H                    -0.96202300           0.72385500           0.67879300         
H                     2.36384600           1.00978500           1.35785500         
H                     2.62488200           2.03462700          -0.08333700         
H                    -2.46245600          -0.17839400           1.38743300         
