24

C                     0.51096000           0.83456100           0.03323200         
C                    -0.89866300           0.40503600           0.49112600         
C                     1.54713100          -0.28290400           0.12478000         
C                    -1.61514500          -0.52868700          -0.53069500         
C                     2.90321900           0.10411800          -0.47976200         
C                    -2.99675700          -0.82164100           0.00390600         
O                     0.48621000           1.34372400          -1.27533300         
O                    -1.61258500           1.60546500           0.61918800         
O                     1.74457600          -0.63138700           1.46372100         
O                    -0.88355700          -1.70852100          -0.72030900         
O                     3.92337500          -0.56536500           0.04949900         
O                    -3.80184800           0.00843700           0.33489700         
H                    -0.19772600           2.02670400          -1.28964900         
H                    -2.55242700           1.40933400           0.77000000         
H                     2.65787400          -0.98835400           1.48833000         
H                    -1.30781300          -2.24902400          -1.39664700         
H                     3.70895800           0.81488900           0.14686000         
H                     0.81091500           1.62350000           0.74433000         
H                    -0.80000800          -0.12424800           1.44875700         
H                     1.20592100          -1.15337800          -0.45550000         
H                    -1.70333700           0.04279800          -1.47107900         
H                     2.96115100           1.61391800          -0.14671100         
H                     2.87087800           0.20492900          -1.57231300         
H                    -3.20823100          -1.90278500           0.10479700         
