24

C                     0.37069500          -1.44645100          -0.32312100         
C                    -0.99516700          -0.76514500          -0.61968900         
C                     1.26115900          -0.59962400           0.56454600         
C                    -0.89213600           0.77512000          -0.67749300         
C                     2.09145700           0.41208400          -0.04500800         
C                    -0.50542400           1.42228500           0.68403700         
O                     0.09884300          -2.70100800           0.24748600         
O                    -1.99741900          -1.15245200           0.27756800         
O                    -0.02171900           0.22264500           1.60829400         
O                    -2.13105500           1.27999500          -1.09675600         
O                     2.12460100           0.46066500          -1.45242000         
O                     0.45399800           2.29432600           0.70068700         
H                     0.89195000          -3.24602800           0.24259400         
H                    -1.63401200          -1.13562200           1.17089800         
H                     0.47083800           0.68750200           2.30358500         
H                    -2.81889200           0.79118700          -0.62154200         
H                     2.73973800          -0.20002600          -1.79400300         
H                     0.88593800          -1.55723300          -1.29047500         
H                    -1.34924200          -1.10815700          -1.59883700         
H                     1.64842800          -1.12473100           1.43408600         
H                    -0.16148800           1.08414300          -1.42964600         
H                     1.48226200           1.49514200           0.21378100         
H                     3.07604900           0.52552000           0.41067100         
H                    -1.43306200           1.76532900           1.18039300         
