24

C                     0.66615100           1.08886200           0.76798000         
C                    -0.71674100           0.51880000           0.81233900         
C                     1.70068700           0.37244200          -0.13997100         
C                    -1.15480000          -0.82274900           0.67782300         
C                     2.44564900          -0.75589200           0.59693100         
C                    -1.89404600          -0.44300400          -0.90236300         
O                     0.62968500           2.46372600           0.49059000         
O                    -1.32411400           1.01938100          -1.00748000         
O                     1.10900300          -0.14725200          -1.31044400         
O                    -2.20330300          -1.22335500           1.47473000         
O                     3.22162200          -1.48999400          -0.31974300         
O                    -3.10509000          -0.52511200          -0.81204800         
H                    -0.03420600           2.61654600          -0.19701000         
H                    -0.55869900           0.95741000          -1.59742300         
H                     1.62233100          -0.93501700          -1.55251900         
H                    -3.02681700          -1.10184900           0.94955900         
H                     3.98302800          -0.96422800          -0.59174700         
H                     1.04224400           1.01153800           1.80198300         
H                    -1.43377500           1.18452800           1.28445700         
H                     2.43388600           1.14651600          -0.42960300         
H                    -0.41892400          -1.60634000           0.51862900         
H                     3.05450900          -0.34239900           1.40757600         
H                     1.73194400          -1.46723000           1.01761400         
H                    -1.29933900          -1.02938200          -1.61279400         
