24

C                     0.40617700           0.72514500           0.45498000         
C                    -1.08184500           1.08303500           0.49647300         
C                     0.76353900           0.13957800          -0.81193900         
C                    -1.84946200          -0.25401200           0.24188000         
C                     2.21488700          -0.06148300          -1.12631000         
C                    -0.96519000          -1.49289200           0.54386600         
O                     1.33528700           1.60086800           1.04502500         
O                    -1.41895300           2.06067400          -0.46046100         
O                     0.01352600          -1.61970000          -0.64777100         
O                    -2.37005100          -0.29142400          -1.06812200         
O                     2.99218800          -0.45361000          -0.03785100         
O                    -0.25130200          -1.43151300           1.63519400         
H                     1.17485600           2.48816000           0.69961800         
H                    -2.06635800           1.65271600          -1.05780400         
H                     0.75039300          -2.12987800          -0.27159700         
H                    -1.78825000          -0.83361400          -1.61366100         
H                     2.82275900           0.15892200           0.69440300         
H                     0.36236600          -0.23062300           1.27303600         
H                    -1.32710700           1.46670000           1.49436200         
H                     0.12976600           0.29521500          -1.67776800         
H                    -2.70653300          -0.30601100           0.92174100         
H                     2.34435200          -0.82320800          -1.90091900         
H                     2.56604500           0.90130100          -1.54519500         
H                    -1.59647600          -2.39826700           0.46196900         
