24

C                     0.48955200           0.46362200           0.64107200         
C                    -0.47294700          -0.61537100           0.53339200         
C                     1.75083600           0.42203500          -0.15211500         
C                    -1.47406700          -0.51403000          -0.75306000         
C                     2.90733500          -0.13733700           0.71173600         
C                    -2.42268300           0.62225100          -0.50137400         
O                    -0.65852400           1.99243500          -0.36978000         
O                    -1.24937000          -0.86587000           1.66507200         
O                     1.58981000          -0.38027100          -1.29390200         
O                    -2.17429600          -1.69813400          -0.91448300         
O                     4.05890900          -0.14991500          -0.10664600         
O                    -3.15598100           0.71298700           0.45166600         
H                    -0.49499200           2.93718900          -0.23984600         
H                    -1.90169700          -0.15061300           1.75980400         
H                     2.47361600          -0.51461100          -1.66077100         
H                    -2.63986100          -1.88704400          -0.08523700         
H                     4.80066300          -0.50314100           0.39377200         
H                     0.48216500           1.08022400           1.52320000         
H                     0.04552600          -1.54389700           0.27327500         
H                     2.04463700           1.44138900          -0.45070900         
H                    -0.85128100          -0.36276400          -1.63249200         
H                     3.05272800           0.49935300           1.59225000         
H                     2.65027400          -1.15292500           1.03928500         
H                    -1.61431700           1.81996400          -0.84585600         
