24

C                    -0.47353600          -0.87377000          -0.19814800         
C                     0.87883300          -0.49107800           0.40524200         
C                    -1.55327700           0.11772300           0.26937400         
C                     1.58160500           0.66427600          -0.29130500         
C                    -2.91550400          -0.17310300          -0.37582800         
C                     2.89828700           0.87772100           0.13115700         
O                    -0.31459500          -0.91743600          -1.59509800         
O                     1.83669900          -1.51864400           0.07429300         
O                    -1.64724400          -0.00438000           1.66767200         
O                     0.83345100           1.66441100          -0.89202800         
O                    -3.84989600           0.69123700           0.23773500         
O                     3.56564100           0.01392600           0.78430700         
H                    -1.08196000          -1.33696800          -1.99337300         
H                     2.75948100          -1.07399300           0.56912200         
H                    -2.44731100           0.47058100           1.92967500         
H                     1.40856200           2.41263000          -1.08880500         
H                    -4.71466300           0.56242500          -0.16308900         
H                    -0.72825300          -1.86926600           0.19677800         
H                     0.77666200          -0.38980500           1.48818100         
H                    -1.25053600           1.13579900          -0.00982800         
H                     2.03078600          -0.65757800          -0.94109700         
H                    -2.86377500           0.01525000          -1.45529900         
H                    -3.19281400          -1.22281400          -0.19652400         
H                     3.41292100           1.79021900          -0.19373300         
