24

C                    -0.43634700           0.31144400          -0.72819900         
C                     0.89125400           0.78614600          -0.74099800         
C                    -1.46199900           0.94678500           0.22253400         
C                     2.18913200          -0.74283900          -0.21922200         
C                    -2.81795700           0.22087100           0.13663500         
C                     1.47255300          -1.20113500           0.86596300         
O                    -0.90852300          -0.14160600          -1.95516900         
O                     1.26275100           1.72829900           0.19022500         
O                    -1.03154500           0.89174900           1.55981700         
O                     3.36632800          -0.04935900          -0.00191700         
O                    -2.68652100          -1.17114500          -0.02312900         
O                     0.28475100          -1.68406400           0.65296200         
H                    -1.66965400          -0.71860700          -1.78286000         
H                     2.22329700           1.66707400           0.32228500         
H                    -0.17696700           1.34154000           1.61128200         
H                     3.97478200          -0.18878900          -0.73348900         
H                    -2.20845300          -1.52399100           0.73898700         
H                    -0.26040200          -0.89902600           0.02230300         
H                     1.36342700           0.86630300          -1.71528300         
H                    -1.61384800           1.99827400          -0.07678900         
H                     2.08646900          -1.25407800          -1.16823600         
H                    -3.38040600           0.46448400           1.04512400         
H                    -3.37729100           0.57537900          -0.73195400         
H                     1.72129700          -0.84719400           1.86604000         
