24

C                    -0.75114400           1.22677300           0.23129300         
C                    -1.45414000           0.07228600           0.96053400         
C                     0.80199000           0.93501800           0.32382300         
C                    -1.06681100          -1.14993700           0.10140000         
C                     2.35779500           0.00902700           1.03513100         
C                     0.33494000          -0.90182900          -0.43896000         
O                    -1.18532900           1.30282500          -1.09573600         
O                    -2.82662100           0.22894000           1.09261700         
O                     1.40116500           1.57901000          -0.77240000         
O                    -1.99050200          -1.30451100          -0.94091000         
O                     3.02185600          -0.40810200           0.01626500         
O                     1.19297200          -1.83821800          -0.26067000         
H                    -0.55919000           1.87423900          -1.56356700         
H                    -3.23695100          -0.12523300           0.28672800         
H                     2.26379300           1.15535100          -0.93771500         
H                    -1.95215700          -0.49845700          -1.48226000         
H                     2.26882300          -1.33584200          -0.34487300         
H                    -0.95629900           2.18339000           0.73235500         
H                    -1.03341300          -0.00578300           1.96849900         
H                     0.98468600           1.50368900           1.25042400         
H                    -1.08539700          -2.08149400           0.67194000         
H                     2.82015400           0.85200700           1.54866400         
H                     1.90503300          -0.72460500           1.70629000         
H                     0.33680800          -0.42484200          -1.42914600         
