12

C                     1.24726400          -0.59200300          -0.40357800         
C                     0.14823000          -1.12080000           0.54271100         
C                    -1.00174100          -0.08997000           0.29210500         
O                     1.43212000           0.72690300          -0.18065700         
O                    -0.18336200           1.21187400           0.40039100         
O                    -1.73695600          -0.18258100          -0.69849900         
H                    -0.41559600           1.81042200          -0.33234400         
H                     2.17628300          -1.10933400          -0.12579600         
H                     0.97113100          -0.81247600          -1.44669800         
H                    -1.49236200           0.07275900           1.29016700         
H                     0.48244900          -1.07085100           1.57627500         
H                    -0.17884000          -2.12345000           0.28109000         
