12

C                     1.75061200          -0.67708900          -0.07881000         
C                    -0.30478400          -0.86920000           0.32368800         
C                    -1.45269100          -0.25098100          -0.40062600         
O                     1.95421500           0.56816500          -0.08269000         
O                     0.26390900           1.03420000           0.10405400         
O                    -2.44777200           0.18022500           0.11427000         
H                    -0.15003400           1.90584100           0.25762600         
H                     2.02590600          -1.25571500           0.80587200         
H                     1.76132800          -1.21220400          -1.03264900         
H                    -1.31976900          -0.25221800          -1.49809600         
H                    -0.37072900          -0.82057800           1.40140200         
H                    -0.06834500          -1.84223000          -0.08473800         
