12

C                    -0.60399000          -0.45386700          -0.46763200         
C                     0.76532600          -0.40448600           0.15567600         
C                     1.76139600           0.51225300          -0.19136400         
O                    -1.48310900           0.20764300           0.42170500         
O                    -2.82104400           0.12112600          -0.08023000         
O                     2.90839100           0.04657400           0.11250900         
H                    -3.29916900           0.69995700           0.52651800         
H                    -0.60920500           0.04255400          -1.44553700         
H                    -0.93544900          -1.49297400          -0.59757700         
H                     1.67703800           1.45950200          -0.71126900         
H                     2.09082200          -1.04147000           0.38831900         
H                     0.70566700          -0.59371800           1.22759600         
