12

C                    -0.82336900          -0.15885000           0.72329600         
C                     0.82921900           0.97631100           0.24954600         
C                     1.71921800           0.06304000          -0.44721500         
O                    -0.93372100           0.41083700          -0.40858300         
O                    -2.47419100          -0.51949600          -0.30005100         
O                     2.29783200          -0.85853500           0.08195300         
H                    -3.16926100           0.12643300          -0.14582600         
H                    -0.39128400          -1.15441000           0.81329500         
H                    -1.26627200           0.28005800           1.61980600         
H                     1.81096900           0.25050700          -1.53059200         
H                     0.59650800           1.91827300          -0.22336200         
H                     0.94957800           1.03368700           1.32636800         
